
     RDKit          3D

 90 94  0  0  0  0  0  0  0  0999 V2000
   -7.5180   12.0410   -1.7110 C   0  0  0  0  0  0  0  0  0  0  0  0
   -8.7050   12.3250   -2.5610 C   0  0  0  0  0  0  0  0  0  0  0  0
   -9.7050   12.9010   -2.0710 O   0  0  0  0  0  0  0  0  0  0  0  0
   -8.7390   11.9560   -3.9320 N   0  0  0  0  0  0  0  0  0  0  0  0
   -9.5340   12.7130   -4.8490 C   0  0  0  0  0  0  0  0  0  0  0  0
  -10.0120   11.8290   -5.9860 C   0  0  0  0  0  0  0  0  0  0  0  0
   -8.8780   11.1510   -6.6330 C   0  0  0  0  0  0  0  0  0  0  0  0
   -7.8810   10.6550   -5.8230 C   0  0  0  0  0  0  0  0  0  0  0  0
   -6.9580   10.0810   -6.6710 C   0  0  0  0  0  0  0  0  0  0  0  0
   -5.7040    9.4060   -6.3230 C   0  0  0  0  0  0  0  0  0  0  0  0
   -4.6170    9.4470   -7.1700 C   0  0  0  0  0  0  0  0  0  0  0  0
   -3.4240    8.8250   -6.8810 C   0  0  0  0  0  0  0  0  0  0  0  0
   -3.3110    8.1140   -5.6660 C   0  0  0  0  0  0  0  0  0  0  0  0
   -2.0420    7.4260   -5.3990 C   0  0  0  0  0  0  0  0  0  0  0  0
   -2.1690    6.1090   -5.1410 F   0  0  0  0  0  0  0  0  0  0  0  0
   -1.2670    7.5230   -6.5700 F   0  0  0  0  0  0  0  0  0  0  0  0
   -1.2940    8.0990   -4.4420 F   0  0  0  0  0  0  0  0  0  0  0  0
   -4.3580    8.0510   -4.8020 C   0  0  0  0  0  0  0  0  0  0  0  0
   -4.2660    7.1340   -3.2970 S   0  0  0  0  0  0  0  0  0  0  0  0
   -5.5320    5.8550   -3.2000 C   0  0  0  0  0  0  0  0  0  0  0  0
   -6.4460    5.9480   -2.0680 C   0  0  0  0  0  0  0  0  0  0  0  0
   -5.9920    5.5500   -0.9400 O   0  0  0  0  0  0  0  0  0  0  0  0
   -7.7620    6.4290   -2.1060 N   0  0  0  0  0  0  0  0  0  0  0  0
   -8.6730    6.5440   -1.0020 C   0  0  0  0  0  0  0  0  0  0  0  0
   -9.2580    7.9250   -1.2130 C   0  0  0  0  0  0  0  0  0  0  0  0
   -9.2610    8.0810   -2.7080 C   0  0  0  0  0  0  0  0  0  0  0  0
   -8.4600    6.9100   -3.2710 C   0  0  0  0  0  0  0  0  0  0  0  0
   -5.5500    8.7040   -5.1490 C   0  0  0  0  0  0  0  0  0  0  0  0
   -7.4210   10.2480   -7.9150 N   0  0  0  0  0  0  0  0  0  0  0  0
   -8.5770   10.8890   -7.9350 N   0  0  0  0  0  0  0  0  0  0  0  0
   -9.3960   11.2610   -9.0720 C   0  0  0  0  0  0  0  0  0  0  0  0
   -8.5950   11.8570  -10.1890 C   0  0  2  0  0  0  0  0  0  0  0  0
   -7.8100   10.8800  -10.7790 O   0  0  0  0  0  0  0  0  0  0  0  0
   -7.8230   13.0620   -9.8380 C   0  0  0  0  0  0  0  0  0  0  0  0
   -6.4150   12.8810  -10.0450 N   0  0  0  0  0  4  0  0  0  0  0  0
   -6.0740   11.7650  -10.8620 C   0  0  0  0  0  0  0  0  0  0  0  0
   -4.5420   11.7110  -11.0580 C   0  0  0  0  0  0  0  0  0  0  0  0
   -3.8590   11.4710   -9.7530 C   0  0  0  0  0  0  0  0  0  0  0  0
   -2.5550   12.2340   -9.7480 C   0  0  0  0  0  0  0  0  0  0  0  0
   -1.4290   11.2110   -9.9350 C   0  0  0  0  0  0  0  0  0  0  0  0
   -2.3450   13.0430   -8.5140 C   0  0  0  0  0  0  0  0  0  0  0  0
   -2.5130   13.0620  -10.8680 O   0  0  0  0  0  0  0  0  0  0  0  0
   -4.7420   11.7950   -8.6010 C   0  0  0  0  0  0  0  0  0  0  0  0
   -5.6520   12.9510   -8.8190 C   0  0  0  0  0  0  0  0  0  0  0  0
   -7.9460   10.7950   -4.3520 C   0  0  0  0  0  0  0  0  0  0  0  0
   -7.8018   12.1089   -0.6504 H   0  0  0  0  0  0  0  0  0  0  0  0
   -7.1461   11.0285   -1.9270 H   0  0  0  0  0  0  0  0  0  0  0  0
   -6.7282   12.7755   -1.9270 H   0  0  0  0  0  0  0  0  0  0  0  0
  -10.4053   13.1255   -4.3191 H   0  0  0  0  0  0  0  0  0  0  0  0
   -8.9234   13.5291   -5.2627 H   0  0  0  0  0  0  0  0  0  0  0  0
  -10.7049   11.0729   -5.5882 H   0  0  0  0  0  0  0  0  0  0  0  0
  -10.5191   12.4581   -6.7324 H   0  0  0  0  0  0  0  0  0  0  0  0
   -4.7071   10.0001   -8.1165 H   0  0  0  0  0  0  0  0  0  0  0  0
   -2.5771    8.8804   -7.5808 H   0  0  0  0  0  0  0  0  0  0  0  0
   -6.1308    5.9030   -4.1215 H   0  0  0  0  0  0  0  0  0  0  0  0
   -4.9886    4.9079   -3.0667 H   0  0  0  0  0  0  0  0  0  0  0  0
   -9.4528    5.7695   -1.0460 H   0  0  0  0  0  0  0  0  0  0  0  0
   -8.1957    6.4118   -0.0198 H   0  0  0  0  0  0  0  0  0  0  0  0
  -10.2796    7.9850   -0.8095 H   0  0  0  0  0  0  0  0  0  0  0  0
   -8.6877    8.7143   -0.7013 H   0  0  0  0  0  0  0  0  0  0  0  0
  -10.2921    8.0540   -3.0902 H   0  0  0  0  0  0  0  0  0  0  0  0
   -8.8198    9.0432   -3.0070 H   0  0  0  0  0  0  0  0  0  0  0  0
   -9.1229    6.1366   -3.6861 H   0  0  0  0  0  0  0  0  0  0  0  0
   -7.7936    7.1897   -4.1003 H   0  0  0  0  0  0  0  0  0  0  0  0
   -6.3994    8.6528   -4.4520 H   0  0  0  0  0  0  0  0  0  0  0  0
   -9.9081   10.3623   -9.4463 H   0  0  0  0  0  0  0  0  0  0  0  0
  -10.1117   12.0238   -8.7315 H   0  0  0  0  0  0  0  0  0  0  0  0
   -9.3251   12.2317  -10.9215 H   0  0  0  0  0  0  0  0  0  0  0  0
   -7.3740   10.3373  -10.0751 H   0  0  0  0  0  0  0  0  0  0  0  0
   -8.1685   13.8989  -10.4627 H   0  0  0  0  0  0  0  0  0  0  0  0
   -7.9843   13.2679   -8.7695 H   0  0  0  0  0  0  0  0  0  0  0  0
   -6.1281   13.6960  -10.6056 H   0  0  0  0  0  0  0  0  0  0  0  0
   -6.4132   10.8386  -10.3755 H   0  0  0  0  0  0  0  0  0  0  0  0
   -6.5630   11.8683  -11.8419 H   0  0  0  0  0  0  0  0  0  0  0  0
   -4.2939   10.8948  -11.7525 H   0  0  0  0  0  0  0  0  0  0  0  0
   -4.2005   12.6729  -11.4680 H   0  0  0  0  0  0  0  0  0  0  0  0
   -3.6311   10.4012   -9.6361 H   0  0  0  0  0  0  0  0  0  0  0  0
   -1.0660   10.8812   -8.9504 H   0  0  0  0  0  0  0  0  0  0  0  0
   -1.8104   10.3441  -10.4944 H   0  0  0  0  0  0  0  0  0  0  0  0
   -0.6025   11.6736  -10.4944 H   0  0  0  0  0  0  0  0  0  0  0  0
   -2.5091   12.4109   -7.6288 H   0  0  0  0  0  0  0  0  0  0  0  0
   -1.3161   13.4319   -8.5012 H   0  0  0  0  0  0  0  0  0  0  0  0
   -3.0548   13.8833   -8.5012 H   0  0  0  0  0  0  0  0  0  0  0  0
   -2.4650   14.0073  -10.5779 H   0  0  0  0  0  0  0  0  0  0  0  0
   -5.3585   10.9105   -8.3829 H   0  0  0  0  0  0  0  0  0  0  0  0
   -4.0775   12.0761   -7.7707 H   0  0  0  0  0  0  0  0  0  0  0  0
   -6.3571   12.9989   -7.9760 H   0  0  0  0  0  0  0  0  0  0  0  0
   -5.0155   13.8450   -8.8932 H   0  0  0  0  0  0  0  0  0  0  0  0
   -8.4009    9.8863   -3.9310 H   0  0  0  0  0  0  0  0  0  0  0  0
   -6.9195   10.9412   -3.9847 H   0  0  0  0  0  0  0  0  0  0  0  0
  1  2  1  0
  2  3  2  0
  2  4  1  0
  4  5  1  0
  5  6  1  0
  6  7  1  0
  7  8  2  0
  8  9  1  0
  9 10  1  0
 10 11  2  0
 11 12  1  0
 12 13  2  0
 13 14  1  0
 14 15  1  0
 14 16  1  0
 14 17  1  0
 13 18  1  0
 18 19  1  0
 19 20  1  0
 20 21  1  0
 21 22  2  0
 21 23  1  0
 23 24  1  0
 24 25  1  0
 25 26  1  0
 26 27  1  0
 18 28  2  0
  9 29  2  0
 29 30  1  0
 30 31  1  0
 31 32  1  0
 32 33  1  0
 32 34  1  0
 34 35  1  0
 35 36  1  0
 36 37  1  0
 37 38  1  0
 38 39  1  0
 39 40  1  0
 39 41  1  0
 39 42  1  0
 38 43  1  0
 43 44  1  0
  8 45  1  0
 45  4  1  0
 30  7  1  0
 44 35  1  0
 28 10  1  0
 27 23  1  0
  1 46  1  0
  1 47  1  0
  1 48  1  0
  5 49  1  0
  5 50  1  0
  6 51  1  0
  6 52  1  0
 11 53  1  0
 12 54  1  0
 20 55  1  0
 20 56  1  0
 24 57  1  0
 24 58  1  0
 25 59  1  0
 25 60  1  0
 26 61  1  0
 26 62  1  0
 27 63  1  0
 27 64  1  0
 28 65  1  0
 31 66  1  0
 31 67  1  0
 32 68  1  6
 33 69  1  0
 34 70  1  0
 34 71  1  0
 35 72  1  0
 36 73  1  0
 36 74  1  0
 37 75  1  0
 37 76  1  0
 38 77  1  0
 40 78  1  0
 40 79  1  0
 40 80  1  0
 41 81  1  0
 41 82  1  0
 41 83  1  0
 42 84  1  0
 43 85  1  0
 43 86  1  0
 44 87  1  0
 44 88  1  0
 45 89  1  0
 45 90  1  0
M  CHG  1  35   1
M  END
$$$$
