
     RDKit          3D

 79 84  0  0  0  0  0  0  0  0999 V2000
   -6.4870    4.4620   -3.9860 C   0  0  0  0  0  0  0  0  0  0  0  0
   -6.0330    5.8590   -4.0300 N   0  0  0  0  0  0  0  0  0  0  0  0
   -5.0320    6.2960   -4.8420 C   0  0  0  0  0  0  0  0  0  0  0  0
   -4.3940    5.5450   -5.6420 O   0  0  0  0  0  0  0  0  0  0  0  0
   -4.9060    7.6020   -4.6020 N   0  0  0  0  0  0  0  0  0  0  0  0
   -4.0100    8.5670   -5.1730 C   0  0  0  0  0  0  0  0  0  0  0  0
   -4.0030    8.5050   -6.6940 C   0  0  0  0  0  0  0  0  0  0  0  0
   -3.1950    9.6750   -7.1980 C   0  0  0  0  0  0  0  0  0  0  0  0
   -1.9780    9.9090   -6.4560 N   0  0  0  0  0  0  0  0  0  0  0  0
   -0.9180   10.4700   -7.2640 C   0  0  0  0  0  0  0  0  0  0  0  0
   -0.4530   11.8090   -6.7740 C   0  0  0  0  0  0  0  0  0  0  0  0
   -1.3780   12.8760   -7.3330 C   0  0  0  0  0  0  0  0  0  0  0  0
   -2.0030   12.4560   -8.5760 N   0  0  0  0  0  0  0  0  0  0  0  0
   -1.2380   12.0360   -9.5990 C   0  0  0  0  0  0  0  0  0  0  0  0
   -1.7970   11.6450  -10.7840 C   0  0  0  0  0  0  0  0  0  0  0  0
   -3.1300   11.6890  -10.9010 N   0  0  0  0  0  0  0  0  0  0  0  0
   -3.9420   12.1060   -9.8870 C   0  0  0  0  0  0  0  0  0  0  0  0
   -5.3820   12.0950  -10.0840 C   0  0  0  0  0  0  0  0  0  0  0  0
   -5.9370   13.0350  -10.9350 C   0  0  0  0  0  0  0  0  0  0  0  0
   -7.3060   13.0630  -11.0620 C   0  0  0  0  0  0  0  0  0  0  0  0
   -8.1060   12.1750  -10.3590 C   0  0  0  0  0  0  0  0  0  0  0  0
   -9.8430   12.2140  -10.5340 Cl  0  0  0  0  0  0  0  0  0  0  0  0
   -7.5800   11.2290   -9.5060 C   0  0  0  0  0  0  0  0  0  0  0  0
   -8.3780   10.3520   -8.6620 C   0  0  0  0  0  0  0  0  0  0  0  0
   -8.6990   10.7920   -7.3580 N   0  0  0  0  0  0  0  0  0  0  0  0
   -8.6780   10.0620   -6.1580 C   0  0  0  0  0  0  0  0  0  0  0  0
   -8.3500    8.8460   -6.1400 O   0  0  0  0  0  0  0  0  0  0  0  0
   -9.0530   10.7280   -4.8940 C   0  0  0  0  0  0  0  0  0  0  0  0
   -9.7270   10.0640   -3.8960 C   0  0  0  0  0  0  0  0  0  0  0  0
  -10.0430   10.7510   -2.7190 C   0  0  0  0  0  0  0  0  0  0  0  0
   -9.6970   12.0710   -2.5350 C   0  0  0  0  0  0  0  0  0  0  0  0
  -10.0080   12.7250   -1.4000 F   0  0  0  0  0  0  0  0  0  0  0  0
   -9.0240   12.7180   -3.5420 C   0  0  0  0  0  0  0  0  0  0  0  0
   -8.7010   12.0460   -4.7230 C   0  0  0  0  0  0  0  0  0  0  0  0
   -6.2030   11.2150   -9.3910 C   0  0  0  0  0  0  0  0  0  0  0  0
   -3.3570   12.4930   -8.7110 C   0  0  0  0  0  0  0  0  0  0  0  0
   -4.0490   12.8990   -7.7180 O   0  0  0  0  0  0  0  0  0  0  0  0
   -1.6030    8.6550   -5.8610 C   0  0  0  0  0  0  0  0  0  0  0  0
   -2.6030    8.3920   -4.7120 C   0  0  0  0  0  0  0  0  0  0  0  0
   -5.8140    8.0090   -3.6490 C   0  0  0  0  0  0  0  0  0  0  0  0
   -6.0950    9.2360   -3.0610 C   0  0  0  0  0  0  0  0  0  0  0  0
   -7.0940    9.3060   -2.1230 C   0  0  0  0  0  0  0  0  0  0  0  0
   -7.4220   10.8690   -1.4030 Cl  0  0  0  0  0  0  0  0  0  0  0  0
   -7.8110    8.1680   -1.7700 C   0  0  0  0  0  0  0  0  0  0  0  0
   -7.5250    6.9660   -2.3540 C   0  0  0  0  0  0  0  0  0  0  0  0
   -6.5170    6.8740   -3.3060 C   0  0  0  0  0  0  0  0  0  0  0  0
   -6.5907    4.1430   -2.9384 H   0  0  0  0  0  0  0  0  0  0  0  0
   -7.4592    4.3763   -4.4933 H   0  0  0  0  0  0  0  0  0  0  0  0
   -5.7509    3.8211   -4.4933 H   0  0  0  0  0  0  0  0  0  0  0  0
   -4.3900    9.5408   -4.8305 H   0  0  0  0  0  0  0  0  0  0  0  0
   -3.5454    7.5622   -7.0282 H   0  0  0  0  0  0  0  0  0  0  0  0
   -5.0299    8.5492   -7.0857 H   0  0  0  0  0  0  0  0  0  0  0  0
   -2.9291    9.4854   -8.2484 H   0  0  0  0  0  0  0  0  0  0  0  0
   -3.8207   10.5714   -7.0758 H   0  0  0  0  0  0  0  0  0  0  0  0
   -0.0641    9.7767   -7.2523 H   0  0  0  0  0  0  0  0  0  0  0  0
   -1.3181   10.6120   -8.2788 H   0  0  0  0  0  0  0  0  0  0  0  0
   -0.4819   11.8321   -5.6746 H   0  0  0  0  0  0  0  0  0  0  0  0
    0.5791   11.9938   -7.1066 H   0  0  0  0  0  0  0  0  0  0  0  0
   -2.1644   13.0875   -6.5935 H   0  0  0  0  0  0  0  0  0  0  0  0
   -0.7764   13.7732   -7.5407 H   0  0  0  0  0  0  0  0  0  0  0  0
   -0.1448   12.0065   -9.4806 H   0  0  0  0  0  0  0  0  0  0  0  0
   -1.1680   11.3033  -11.6192 H   0  0  0  0  0  0  0  0  0  0  0  0
   -5.3019   13.7387  -11.4931 H   0  0  0  0  0  0  0  0  0  0  0  0
   -7.7733   13.8006  -11.7310 H   0  0  0  0  0  0  0  0  0  0  0  0
   -9.3269   10.1684   -9.1873 H   0  0  0  0  0  0  0  0  0  0  0  0
   -7.7392    9.4707   -8.5031 H   0  0  0  0  0  0  0  0  0  0  0  0
   -8.9862   11.7778   -7.2767 H   0  0  0  0  0  0  0  0  0  0  0  0
  -10.0132    9.0093   -4.0212 H   0  0  0  0  0  0  0  0  0  0  0  0
  -10.5823   10.2225   -1.9191 H   0  0  0  0  0  0  0  0  0  0  0  0
   -8.7373   13.7727   -3.4177 H   0  0  0  0  0  0  0  0  0  0  0  0
   -8.1611   12.5751   -5.5221 H   0  0  0  0  0  0  0  0  0  0  0  0
   -5.7376   10.4758   -8.7225 H   0  0  0  0  0  0  0  0  0  0  0  0
   -1.6620    7.8487   -6.6070 H   0  0  0  0  0  0  0  0  0  0  0  0
   -0.5694    8.6883   -5.4862 H   0  0  0  0  0  0  0  0  0  0  0  0
   -2.4697    7.3624   -4.3486 H   0  0  0  0  0  0  0  0  0  0  0  0
   -2.4072    9.1152   -3.9066 H   0  0  0  0  0  0  0  0  0  0  0  0
   -5.5270   10.1350   -3.3423 H   0  0  0  0  0  0  0  0  0  0  0  0
   -8.6111    8.2355   -1.0181 H   0  0  0  0  0  0  0  0  0  0  0  0
   -8.0944    6.0688   -2.0696 H   0  0  0  0  0  0  0  0  0  0  0  0
  1  2  1  0
  2  3  1  0
  3  4  2  0
  3  5  1  0
  5  6  1  0
  6  7  1  0
  7  8  1  0
  8  9  1  0
  9 10  1  0
 10 11  1  0
 11 12  1  0
 12 13  1  0
 13 14  1  0
 14 15  2  0
 15 16  1  0
 16 17  2  0
 17 18  1  0
 18 19  2  0
 19 20  1  0
 20 21  2  0
 21 22  1  0
 21 23  1  0
 23 24  1  0
 24 25  1  0
 25 26  1  0
 26 27  2  0
 26 28  1  0
 28 29  2  0
 29 30  1  0
 30 31  2  0
 31 32  1  0
 31 33  1  0
 33 34  2  0
 23 35  2  0
 17 36  1  0
 36 37  2  0
  9 38  1  0
 38 39  1  0
  5 40  1  0
 40 41  2  0
 41 42  1  0
 42 43  1  0
 42 44  2  0
 44 45  1  0
 45 46  2  0
 46  2  1  0
 39  6  1  0
 46 40  1  0
 36 13  1  0
 35 18  1  0
 34 28  1  0
  1 47  1  0
  1 48  1  0
  1 49  1  0
  6 50  1  0
  7 51  1  0
  7 52  1  0
  8 53  1  0
  8 54  1  0
 10 55  1  0
 10 56  1  0
 11 57  1  0
 11 58  1  0
 12 59  1  0
 12 60  1  0
 14 61  1  0
 15 62  1  0
 19 63  1  0
 20 64  1  0
 24 65  1  0
 24 66  1  0
 25 67  1  0
 29 68  1  0
 30 69  1  0
 33 70  1  0
 34 71  1  0
 35 72  1  0
 38 73  1  0
 38 74  1  0
 39 75  1  0
 39 76  1  0
 41 77  1  0
 44 78  1  0
 45 79  1  0
M  END
$$$$
