
     RDKit          3D

 79 84  0  0  0  0  0  0  0  0999 V2000
   -8.7090   12.9730   -1.9710 C   0  0  0  0  0  0  0  0  0  0  0  0
   -8.6690   11.8090   -2.8160 N   0  0  0  0  0  0  0  0  0  0  0  0
   -8.7080   11.8060   -4.1750 C   0  0  0  0  0  0  0  0  0  0  0  0
   -8.7800   12.8550   -4.8340 O   0  0  0  0  0  0  0  0  0  0  0  0
   -8.6570   10.5320   -4.5970 N   0  0  0  0  0  0  0  0  0  0  0  0
   -8.6730   10.1070   -5.9630 C   0  0  0  0  0  0  0  0  0  0  0  0
   -7.6270    9.0440   -6.1960 C   0  0  0  0  0  0  0  0  0  0  0  0
   -7.5590    8.7150   -7.6700 C   0  0  0  0  0  0  0  0  0  0  0  0
   -8.9020    8.9380   -8.2320 N   0  0  0  0  0  0  0  0  0  0  0  0
   -8.9990    8.2690   -9.5210 C   0  0  0  0  0  0  0  0  0  0  0  0
  -10.0490    9.0360  -10.3560 C   0  0  0  0  0  0  0  0  0  0  0  0
   -9.3640   10.1310  -11.0600 C   0  0  0  0  0  0  0  0  0  0  0  0
   -8.5660   11.0230  -10.3070 N   0  0  0  0  0  0  0  0  0  0  0  0
   -9.1680   12.1230   -9.8440 N   0  0  0  0  0  0  0  0  0  0  0  0
   -8.5210   13.0620   -9.1580 C   0  0  0  0  0  0  0  0  0  0  0  0
   -7.1870   12.9110   -8.9190 C   0  0  0  0  0  0  0  0  0  0  0  0
   -6.5090   11.7800   -9.3870 C   0  0  0  0  0  0  0  0  0  0  0  0
   -5.0300   11.8280   -9.3400 C   0  0  0  0  0  0  0  0  0  0  0  0
   -4.4980   12.6420  -10.3750 C   0  0  0  0  0  0  0  0  0  0  0  0
   -3.1400   12.7010  -10.6400 C   0  0  0  0  0  0  0  0  0  0  0  0
   -2.3500   11.9410   -9.8440 C   0  0  0  0  0  0  0  0  0  0  0  0
   -0.5880   11.9740  -10.0960 Cl  0  0  0  0  0  0  0  0  0  0  0  0
   -2.8110   11.1360   -8.8150 C   0  0  0  0  0  0  0  0  0  0  0  0
   -1.7880   10.2380   -8.2140 C   0  0  0  0  0  0  0  0  0  0  0  0
   -2.3780    9.4290   -7.2020 N   0  0  0  0  0  0  0  0  0  0  0  0
   -1.9510    8.3670   -6.4450 C   0  0  0  0  0  0  0  0  0  0  0  0
   -0.7570    7.9290   -6.5270 O   0  0  0  0  0  0  0  0  0  0  0  0
   -2.8820    7.6810   -5.5220 C   0  0  0  0  0  0  0  0  0  0  0  0
   -3.4810    6.5040   -5.7420 C   0  0  0  0  0  0  0  0  0  0  0  0
   -4.3990    5.9200   -4.8900 C   0  0  0  0  0  0  0  0  0  0  0  0
   -4.7420    6.5800   -3.7110 C   0  0  0  0  0  0  0  0  0  0  0  0
   -5.6310    6.0710   -2.8550 F   0  0  0  0  0  0  0  0  0  0  0  0
   -4.1240    7.8070   -3.4720 C   0  0  0  0  0  0  0  0  0  0  0  0
   -3.2160    8.3590   -4.3420 C   0  0  0  0  0  0  0  0  0  0  0  0
   -4.1820   11.0960   -8.5730 C   0  0  0  0  0  0  0  0  0  0  0  0
   -7.2310   10.8460  -10.0760 C   0  0  0  0  0  0  0  0  0  0  0  0
   -6.6850    9.8100  -10.5090 O   0  0  0  0  0  0  0  0  0  0  0  0
   -9.8820    8.4320   -7.2790 C   0  0  0  0  0  0  0  0  0  0  0  0
  -10.0620    9.5980   -6.2840 C   0  0  0  0  0  0  0  0  0  0  0  0
   -8.5850    9.7440   -3.5140 C   0  0  0  0  0  0  0  0  0  0  0  0
   -8.5190    8.3620   -3.3900 C   0  0  0  0  0  0  0  0  0  0  0  0
   -8.4610    7.8340   -2.1220 C   0  0  0  0  0  0  0  0  0  0  0  0
   -8.3860    6.0870   -1.9790 Cl  0  0  0  0  0  0  0  0  0  0  0  0
   -8.4650    8.6180   -1.0160 C   0  0  0  0  0  0  0  0  0  0  0  0
   -8.5290    9.9820   -1.1110 C   0  0  0  0  0  0  0  0  0  0  0  0
   -8.5910   10.5400   -2.3600 C   0  0  0  0  0  0  0  0  0  0  0  0
   -8.6983   12.6609   -0.9162 H   0  0  0  0  0  0  0  0  0  0  0  0
   -7.8320   13.6048   -2.1754 H   0  0  0  0  0  0  0  0  0  0  0  0
   -9.6273   13.5431   -2.1754 H   0  0  0  0  0  0  0  0  0  0  0  0
   -8.4314   10.9485   -6.6290 H   0  0  0  0  0  0  0  0  0  0  0  0
   -6.6477    9.4134   -5.8577 H   0  0  0  0  0  0  0  0  0  0  0  0
   -7.8937    8.1385   -5.6312 H   0  0  0  0  0  0  0  0  0  0  0  0
   -6.8291    9.3699   -8.1684 H   0  0  0  0  0  0  0  0  0  0  0  0
   -7.2420    7.6726   -7.8217 H   0  0  0  0  0  0  0  0  0  0  0  0
   -8.0243    8.2894  -10.0305 H   0  0  0  0  0  0  0  0  0  0  0  0
   -9.2940    7.2170   -9.3937 H   0  0  0  0  0  0  0  0  0  0  0  0
  -10.5132    8.3565  -11.0860 H   0  0  0  0  0  0  0  0  0  0  0  0
  -10.8359    9.4382   -9.7011 H   0  0  0  0  0  0  0  0  0  0  0  0
   -8.7115    9.6720  -11.8173 H   0  0  0  0  0  0  0  0  0  0  0  0
  -10.1825   10.7590  -11.4417 H   0  0  0  0  0  0  0  0  0  0  0  0
   -9.0558   13.9493   -8.7882 H   0  0  0  0  0  0  0  0  0  0  0  0
   -6.6412   13.6821   -8.3555 H   0  0  0  0  0  0  0  0  0  0  0  0
   -5.1864   13.2447  -10.9855 H   0  0  0  0  0  0  0  0  0  0  0  0
   -2.7285   13.3259  -11.4464 H   0  0  0  0  0  0  0  0  0  0  0  0
   -1.3674    9.5906   -8.9975 H   0  0  0  0  0  0  0  0  0  0  0  0
   -0.9918   10.8503   -7.7655 H   0  0  0  0  0  0  0  0  0  0  0  0
   -3.3476    9.7038   -6.9892 H   0  0  0  0  0  0  0  0  0  0  0  0
   -3.2245    5.9641   -6.6654 H   0  0  0  0  0  0  0  0  0  0  0  0
   -4.8522    4.9490   -5.1384 H   0  0  0  0  0  0  0  0  0  0  0  0
   -4.3735    8.3540   -2.5508 H   0  0  0  0  0  0  0  0  0  0  0  0
   -2.7525    9.3300   -4.1133 H   0  0  0  0  0  0  0  0  0  0  0  0
   -4.5782   10.4706   -7.7595 H   0  0  0  0  0  0  0  0  0  0  0  0
  -10.8315    8.1952   -7.7814 H   0  0  0  0  0  0  0  0  0  0  0  0
   -9.5594    7.5009   -6.7902 H   0  0  0  0  0  0  0  0  0  0  0  0
  -10.6638   10.3977   -6.7405 H   0  0  0  0  0  0  0  0  0  0  0  0
  -10.5848    9.2677   -5.3743 H   0  0  0  0  0  0  0  0  0  0  0  0
   -8.5133    7.7116   -4.2771 H   0  0  0  0  0  0  0  0  0  0  0  0
   -8.4158    8.1486   -0.0224 H   0  0  0  0  0  0  0  0  0  0  0  0
   -8.5306   10.6122   -0.2094 H   0  0  0  0  0  0  0  0  0  0  0  0
  1  2  1  0
  2  3  1  0
  3  4  2  0
  3  5  1  0
  5  6  1  0
  6  7  1  0
  7  8  1  0
  8  9  1  0
  9 10  1  0
 10 11  1  0
 11 12  1  0
 12 13  1  0
 13 14  1  0
 14 15  2  0
 15 16  1  0
 16 17  2  0
 17 18  1  0
 18 19  2  0
 19 20  1  0
 20 21  2  0
 21 22  1  0
 21 23  1  0
 23 24  1  0
 24 25  1  0
 25 26  1  0
 26 27  2  0
 26 28  1  0
 28 29  2  0
 29 30  1  0
 30 31  2  0
 31 32  1  0
 31 33  1  0
 33 34  2  0
 23 35  2  0
 17 36  1  0
 36 37  2  0
  9 38  1  0
 38 39  1  0
  5 40  1  0
 40 41  2  0
 41 42  1  0
 42 43  1  0
 42 44  2  0
 44 45  1  0
 45 46  2  0
 46  2  1  0
 39  6  1  0
 46 40  1  0
 36 13  1  0
 35 18  1  0
 34 28  1  0
  1 47  1  0
  1 48  1  0
  1 49  1  0
  6 50  1  0
  7 51  1  0
  7 52  1  0
  8 53  1  0
  8 54  1  0
 10 55  1  0
 10 56  1  0
 11 57  1  0
 11 58  1  0
 12 59  1  0
 12 60  1  0
 15 61  1  0
 16 62  1  0
 19 63  1  0
 20 64  1  0
 24 65  1  0
 24 66  1  0
 25 67  1  0
 29 68  1  0
 30 69  1  0
 33 70  1  0
 34 71  1  0
 35 72  1  0
 38 73  1  0
 38 74  1  0
 39 75  1  0
 39 76  1  0
 41 77  1  0
 44 78  1  0
 45 79  1  0
M  END
$$$$
