
     RDKit          3D

 84 88  0  0  0  0  0  0  0  0999 V2000
   -3.4510    8.4140   -4.1100 O   0  0  0  0  0  0  0  0  0  0  0  0
   -3.8740    7.3440   -4.6050 C   0  0  0  0  0  0  0  0  0  0  0  0
   -2.9570    6.5330   -5.4510 C   0  0  0  0  0  0  0  0  0  0  0  0
   -1.6340    6.9360   -5.2870 O   0  0  0  0  0  0  0  0  0  0  0  0
   -5.2020    6.9470   -4.3420 N   0  0  0  0  0  0  0  0  0  0  0  0
   -5.6360    6.5960   -2.9920 C   0  0  0  0  0  0  0  0  0  0  0  0
   -7.0150    5.9790   -3.1180 C   0  0  0  0  0  0  0  0  0  0  0  0
   -7.8790    7.0370   -3.7390 C   0  0  0  0  0  0  0  0  0  0  0  0
   -7.4150    7.5250   -4.9680 C   0  0  0  0  0  0  0  0  0  0  0  0
   -8.3200    8.4640   -5.3480 C   0  0  0  0  0  0  0  0  0  0  0  0
   -8.2300    9.2330   -6.5880 C   0  0  0  0  0  0  0  0  0  0  0  0
   -8.7750    8.6970   -7.7260 C   0  0  0  0  0  0  0  0  0  0  0  0
   -8.7060    9.4140   -8.8820 C   0  0  0  0  0  0  0  0  0  0  0  0
   -8.0960   10.6770   -8.9380 C   0  0  0  0  0  0  0  0  0  0  0  0
   -8.0900   11.3510  -10.2430 C   0  0  0  0  0  0  0  0  0  0  0  0
   -8.4510   12.6900  -10.0510 F   0  0  0  0  0  0  0  0  0  0  0  0
   -6.8780   11.2270  -10.8630 F   0  0  0  0  0  0  0  0  0  0  0  0
   -9.0640   10.7810  -11.0620 F   0  0  0  0  0  0  0  0  0  0  0  0
   -7.5410   11.2330   -7.8100 C   0  0  0  0  0  0  0  0  0  0  0  0
   -6.8370   12.8400   -7.8090 S   0  0  0  0  0  0  0  0  0  0  0  0
   -5.3810   13.0620   -8.7990 C   0  0  0  0  0  0  0  0  0  0  0  0
   -4.0830   12.6000   -8.2580 C   0  0  0  0  0  0  0  0  0  0  0  0
   -3.5980   11.4140   -8.9240 N   0  0  0  0  0  0  0  0  0  0  0  0
   -3.9530   10.2020   -8.2700 C   0  0  0  0  0  0  0  0  0  0  0  0
   -3.1330    9.7830   -7.1180 C   0  0  0  0  0  0  0  0  0  0  0  0
   -2.0150   10.6680   -6.7120 C   0  0  0  0  0  0  0  0  0  0  0  0
   -0.9970    9.8400   -6.2140 F   0  0  0  0  0  0  0  0  0  0  0  0
   -1.4160   11.4870   -7.8040 C   0  0  0  0  0  0  0  0  0  0  0  0
   -2.1660   11.4230   -9.1010 C   0  0  0  0  0  0  0  0  0  0  0  0
   -7.6280   10.4710   -6.6330 C   0  0  0  0  0  0  0  0  0  0  0  0
   -9.2680    8.5220   -4.3900 N   0  0  0  0  0  0  0  0  0  0  0  0
   -9.0100    7.6730   -3.4290 N   0  0  0  0  0  0  0  0  0  0  0  0
   -9.7800    7.4400   -2.2480 C   0  0  0  0  0  0  0  0  0  0  0  0
   -9.3560    8.2860   -1.0730 C   0  0  1  0  0  0  0  0  0  0  0  0
   -7.9750    8.3790   -0.9660 O   0  0  0  0  0  0  0  0  0  0  0  0
  -10.0620    9.5850   -0.9790 C   0  0  0  0  0  0  0  0  0  0  0  0
   -9.4130   10.7470   -1.4130 N   0  0  0  0  0  0  0  0  0  0  0  0
   -8.0610   10.6790   -1.8110 C   0  0  0  0  0  0  0  0  0  0  0  0
   -7.9340   11.3890   -3.1680 C   0  0  0  0  0  0  0  0  0  0  0  0
   -8.9430   12.4980   -3.3100 C   0  0  0  0  0  0  0  0  0  0  0  0
   -9.2400   13.0620   -1.9420 C   0  0  0  0  0  0  0  0  0  0  0  0
   -9.9570   12.0070   -1.0900 C   0  0  0  0  0  0  0  0  0  0  0  0
   -6.1580    6.8960   -5.4570 C   0  0  0  0  0  0  0  0  0  0  0  0
   -3.0478    5.4744   -5.1662 H   0  0  0  0  0  0  0  0  0  0  0  0
   -3.2371    6.6757   -6.5051 H   0  0  0  0  0  0  0  0  0  0  0  0
   -1.4257    6.9995   -4.3213 H   0  0  0  0  0  0  0  0  0  0  0  0
   -4.9374    5.8725   -2.5464 H   0  0  0  0  0  0  0  0  0  0  0  0
   -5.6603    7.4841   -2.3434 H   0  0  0  0  0  0  0  0  0  0  0  0
   -6.9787    5.0874   -3.7612 H   0  0  0  0  0  0  0  0  0  0  0  0
   -7.4062    5.6574   -2.1415 H   0  0  0  0  0  0  0  0  0  0  0  0
   -9.2578    7.7088   -7.7060 H   0  0  0  0  0  0  0  0  0  0  0  0
   -9.1413    8.9906   -9.7992 H   0  0  0  0  0  0  0  0  0  0  0  0
   -5.5472   12.5273   -9.7458 H   0  0  0  0  0  0  0  0  0  0  0  0
   -5.2691   14.1538   -8.8731 H   0  0  0  0  0  0  0  0  0  0  0  0
   -3.3422   13.4033   -8.3838 H   0  0  0  0  0  0  0  0  0  0  0  0
   -4.2323   12.3507   -7.1971 H   0  0  0  0  0  0  0  0  0  0  0  0
   -4.9885   10.3105   -7.9150 H   0  0  0  0  0  0  0  0  0  0  0  0
   -3.7937    9.4192   -9.0262 H   0  0  0  0  0  0  0  0  0  0  0  0
   -3.8060    9.6855   -6.2534 H   0  0  0  0  0  0  0  0  0  0  0  0
   -2.6470    8.8521   -7.4455 H   0  0  0  0  0  0  0  0  0  0  0  0
   -2.4316   11.3799   -5.9843 H   0  0  0  0  0  0  0  0  0  0  0  0
   -1.3876   12.5357   -7.4731 H   0  0  0  0  0  0  0  0  0  0  0  0
   -0.4148   11.0742   -7.9966 H   0  0  0  0  0  0  0  0  0  0  0  0
   -1.8932   12.2993   -9.7073 H   0  0  0  0  0  0  0  0  0  0  0  0
   -1.8894   10.4799   -9.5950 H   0  0  0  0  0  0  0  0  0  0  0  0
   -7.1968   10.8806   -5.7076 H   0  0  0  0  0  0  0  0  0  0  0  0
  -10.8345    7.6592   -2.4717 H   0  0  0  0  0  0  0  0  0  0  0  0
   -9.6221    6.3895   -1.9624 H   0  0  0  0  0  0  0  0  0  0  0  0
   -9.6899    7.7467   -0.1743 H   0  0  0  0  0  0  0  0  0  0  0  0
   -7.7185    8.3963   -0.0100 H   0  0  0  0  0  0  0  0  0  0  0  0
  -10.9853    9.4927   -1.5697 H   0  0  0  0  0  0  0  0  0  0  0  0
  -10.1818    9.7404    0.1034 H   0  0  0  0  0  0  0  0  0  0  0  0
   -7.4259   11.1802   -1.0657 H   0  0  0  0  0  0  0  0  0  0  0  0
   -7.7374    9.6310   -1.8941 H   0  0  0  0  0  0  0  0  0  0  0  0
   -6.9228   11.8130   -3.2558 H   0  0  0  0  0  0  0  0  0  0  0  0
   -8.1205   10.6504   -3.9615 H   0  0  0  0  0  0  0  0  0  0  0  0
   -8.5344   13.2894   -3.9556 H   0  0  0  0  0  0  0  0  0  0  0  0
   -9.8666   12.1079   -3.7625 H   0  0  0  0  0  0  0  0  0  0  0  0
   -8.2974   13.3480   -1.4523 H   0  0  0  0  0  0  0  0  0  0  0  0
   -9.8865   13.9459   -2.0459 H   0  0  0  0  0  0  0  0  0  0  0  0
   -9.8002   12.2193   -0.0221 H   0  0  0  0  0  0  0  0  0  0  0  0
  -11.0382   12.0210   -1.2922 H   0  0  0  0  0  0  0  0  0  0  0  0
   -6.3447    5.8522   -5.7495 H   0  0  0  0  0  0  0  0  0  0  0  0
   -5.7672    7.4240   -6.3393 H   0  0  0  0  0  0  0  0  0  0  0  0
  1  2  2  0
  2  3  1  0
  3  4  1  0
  2  5  1  0
  5  6  1  0
  6  7  1  0
  7  8  1  0
  8  9  2  0
  9 10  1  0
 10 11  1  0
 11 12  2  0
 12 13  1  0
 13 14  2  0
 14 15  1  0
 15 16  1  0
 15 17  1  0
 15 18  1  0
 14 19  1  0
 19 20  1  0
 20 21  1  0
 21 22  1  0
 22 23  1  0
 23 24  1  0
 24 25  1  0
 25 26  1  0
 26 27  1  0
 26 28  1  0
 28 29  1  0
 19 30  2  0
 10 31  2  0
 31 32  1  0
 32 33  1  0
 33 34  1  0
 34 35  1  0
 34 36  1  0
 36 37  1  0
 37 38  1  0
 38 39  1  0
 39 40  1  0
 40 41  1  0
 41 42  1  0
  9 43  1  0
 43  5  1  0
 32  8  1  0
 42 37  1  0
 30 11  1  0
 29 23  1  0
  3 44  1  0
  3 45  1  0
  4 46  1  0
  6 47  1  0
  6 48  1  0
  7 49  1  0
  7 50  1  0
 12 51  1  0
 13 52  1  0
 21 53  1  0
 21 54  1  0
 22 55  1  0
 22 56  1  0
 24 57  1  0
 24 58  1  0
 25 59  1  0
 25 60  1  0
 26 61  1  0
 28 62  1  0
 28 63  1  0
 29 64  1  0
 29 65  1  0
 30 66  1  0
 33 67  1  0
 33 68  1  0
 34 69  1  1
 35 70  1  0
 36 71  1  0
 36 72  1  0
 38 73  1  0
 38 74  1  0
 39 75  1  0
 39 76  1  0
 40 77  1  0
 40 78  1  0
 41 79  1  0
 41 80  1  0
 42 81  1  0
 42 82  1  0
 43 83  1  0
 43 84  1  0
M  END
$$$$
