
     RDKit          3D

105109  0  0  0  0  0  0  0  0999 V2000
   -0.3390    6.8960   -4.8270 C   0  0  0  0  0  0  0  0  0  0  0  0
   -0.7720    8.0390   -5.6270 C   0  0  0  0  0  0  0  0  0  0  0  0
   -0.3350    8.0540   -7.0710 C   0  0  0  0  0  0  0  0  0  0  0  0
   -1.5180    9.0410   -5.1520 C   0  0  0  0  0  0  0  0  0  0  0  0
   -1.8940   10.1410   -5.9880 C   0  0  0  0  0  0  0  0  0  0  0  0
   -2.6750    9.9230   -6.9830 O   0  0  0  0  0  0  0  0  0  0  0  0
   -1.4010   11.5130   -5.7840 N   0  0  0  0  0  0  0  0  0  0  0  0
   -1.7620   12.3830   -6.8190 C   0  0  0  0  0  0  0  0  0  0  0  0
   -2.9390   12.2470   -7.6500 C   0  0  0  0  0  0  0  0  0  0  0  0
   -4.2810   12.2770   -7.3830 C   0  0  0  0  0  0  0  0  0  0  0  0
   -5.2690   11.9450   -8.2220 C   0  0  0  0  0  0  0  0  0  0  0  0
   -6.7250   11.9890   -8.0170 C   0  0  0  0  0  0  0  0  0  0  0  0
   -7.5580   11.8780   -9.0740 N   0  0  0  0  0  0  0  0  0  0  0  0
   -8.8260   11.8920   -8.7840 N   0  0  0  0  0  0  0  0  0  0  0  0
   -9.8490   11.5620   -9.6940 C   0  0  0  0  0  0  0  0  0  0  0  0
   -9.6130   11.0650  -11.0620 C   0  0  0  0  0  0  0  0  0  0  0  0
   -9.3230    9.5080  -10.8370 C   0  0  0  0  0  0  0  0  0  0  0  0
   -9.2100    9.3780   -9.3870 N   0  0  0  0  0  0  0  0  0  0  0  0
  -10.0600    8.4200   -8.7580 C   0  0  0  0  0  0  0  0  0  0  0  0
   -9.6920    8.5130   -7.2510 C   0  0  0  0  0  0  0  0  0  0  0  0
   -8.5070    7.8440   -7.0600 O   0  0  0  0  0  0  0  0  0  0  0  0
   -7.8210    7.6560   -8.2630 C   0  0  0  0  0  0  0  0  0  0  0  0
   -7.8350    8.8590   -9.1270 C   0  0  0  0  0  0  0  0  0  0  0  0
   -8.8530   12.0260   -7.4480 C   0  0  0  0  0  0  0  0  0  0  0  0
   -7.5610   12.0810   -6.9540 C   0  0  0  0  0  0  0  0  0  0  0  0
   -7.2800   12.1930   -5.4920 C   0  0  0  0  0  0  0  0  0  0  0  0
   -8.5450   12.0910   -4.8200 N   0  0  0  0  0  0  0  0  0  0  0  0
   -9.0140   11.2780   -3.8330 C   0  0  0  0  0  0  0  0  0  0  0  0
   -9.0450   11.9460   -2.6370 O   0  0  0  0  0  0  0  0  0  0  0  0
   -9.4910    9.9400   -3.6400 C   0  0  0  0  0  0  0  0  0  0  0  0
   -8.3900    8.9370   -3.4420 C   0  0  0  0  0  0  0  0  0  0  0  0
   -7.2830    9.1690   -4.4830 C   0  0  0  0  0  0  0  0  0  0  0  0
   -6.0490    8.4620   -4.1170 C   0  0  0  0  0  0  0  0  0  0  0  0
   -6.2650    7.2510   -3.4140 N   0  0  0  0  0  0  0  0  0  0  0  0
   -5.1360    6.3730   -3.1740 C   0  0  0  0  0  0  0  0  0  0  0  0
   -5.1310    5.7600   -2.0600 O   0  0  0  0  0  0  0  0  0  0  0  0
   -4.1490    6.2030   -4.0940 O   0  0  0  0  0  0  0  0  0  0  0  0
   -4.5300    6.2070   -5.4670 C   0  0  0  0  0  0  0  0  0  0  0  0
   -4.4880    7.6190   -6.0600 C   0  0  0  0  0  0  0  0  0  0  0  0
   -5.6420    5.3830   -5.8770 C   0  0  0  0  0  0  0  0  0  0  0  0
   -3.2250    5.6170   -6.1640 C   0  0  0  0  0  0  0  0  0  0  0  0
   -7.5600    6.6380   -3.0470 C   0  0  0  0  0  0  0  0  0  0  0  0
   -8.7370    7.5090   -3.4190 C   0  0  0  0  0  0  0  0  0  0  0  0
   -9.5870   13.0620   -5.3720 C   0  0  0  0  0  0  0  0  0  0  0  0
  -10.0610   12.2110   -6.5880 C   0  0  0  0  0  0  0  0  0  0  0  0
   -4.8870   11.5230   -9.5150 C   0  0  0  0  0  0  0  0  0  0  0  0
   -3.5460   11.4660   -9.8660 C   0  0  0  0  0  0  0  0  0  0  0  0
   -2.6050   11.8110   -8.9790 C   0  0  0  0  0  0  0  0  0  0  0  0
   -1.1650   11.8790   -9.3680 C   0  0  0  0  0  0  0  0  0  0  0  0
   -0.4230   12.6560   -8.4590 F   0  0  0  0  0  0  0  0  0  0  0  0
   -1.0940   12.7150  -10.5350 F   0  0  0  0  0  0  0  0  0  0  0  0
   -0.5690   10.7380   -9.7770 F   0  0  0  0  0  0  0  0  0  0  0  0
   -0.4315    7.1402   -3.7585 H   0  0  0  0  0  0  0  0  0  0  0  0
   -0.9696    6.0254   -5.0601 H   0  0  0  0  0  0  0  0  0  0  0  0
    0.7102    6.6617   -5.0601 H   0  0  0  0  0  0  0  0  0  0  0  0
    0.7632    8.0917   -7.1214 H   0  0  0  0  0  0  0  0  0  0  0  0
   -0.6940    7.1430   -7.5722 H   0  0  0  0  0  0  0  0  0  0  0  0
   -0.7556    8.9382   -7.5722 H   0  0  0  0  0  0  0  0  0  0  0  0
   -1.8482    9.0204   -4.1029 H   0  0  0  0  0  0  0  0  0  0  0  0
   -0.8479   11.8025   -4.9647 H   0  0  0  0  0  0  0  0  0  0  0  0
   -1.8476   13.3747   -6.3509 H   0  0  0  0  0  0  0  0  0  0  0  0
   -0.9758   12.1521   -7.5528 H   0  0  0  0  0  0  0  0  0  0  0  0
   -4.5774   12.6076   -6.3766 H   0  0  0  0  0  0  0  0  0  0  0  0
  -10.4510   10.7876   -9.1962 H   0  0  0  0  0  0  0  0  0  0  0  0
  -10.2673   12.5573   -9.9048 H   0  0  0  0  0  0  0  0  0  0  0  0
  -10.5003   11.2140  -11.6949 H   0  0  0  0  0  0  0  0  0  0  0  0
   -8.7933   11.5877  -11.5766 H   0  0  0  0  0  0  0  0  0  0  0  0
  -10.1522    8.8959  -11.2214 H   0  0  0  0  0  0  0  0  0  0  0  0
   -8.4218    9.1636  -11.3654 H   0  0  0  0  0  0  0  0  0  0  0  0
  -11.1184    8.6738   -8.9173 H   0  0  0  0  0  0  0  0  0  0  0  0
   -9.9234    7.4063   -9.1627 H   0  0  0  0  0  0  0  0  0  0  0  0
   -9.5763    9.5674   -6.9596 H   0  0  0  0  0  0  0  0  0  0  0  0
  -10.4864    8.0653   -6.6359 H   0  0  0  0  0  0  0  0  0  0  0  0
   -6.7759    7.3994   -8.0350 H   0  0  0  0  0  0  0  0  0  0  0  0
   -8.3296    6.8492   -8.8111 H   0  0  0  0  0  0  0  0  0  0  0  0
   -7.2496    9.6499   -8.6352 H   0  0  0  0  0  0  0  0  0  0  0  0
   -7.4047    8.5705  -10.0974 H   0  0  0  0  0  0  0  0  0  0  0  0
   -6.6132   11.3793   -5.1706 H   0  0  0  0  0  0  0  0  0  0  0  0
   -6.7823   13.1453   -5.2564 H   0  0  0  0  0  0  0  0  0  0  0  0
  -10.1396    9.9257   -2.7517 H   0  0  0  0  0  0  0  0  0  0  0  0
  -10.0315    9.6528   -4.5540 H   0  0  0  0  0  0  0  0  0  0  0  0
   -8.0663    9.1362   -2.4097 H   0  0  0  0  0  0  0  0  0  0  0  0
   -7.6287    8.8033   -5.4611 H   0  0  0  0  0  0  0  0  0  0  0  0
   -7.0662   10.2466   -4.5246 H   0  0  0  0  0  0  0  0  0  0  0  0
   -5.4955    8.2324   -5.0394 H   0  0  0  0  0  0  0  0  0  0  0  0
   -5.4901    9.1265   -3.4416 H   0  0  0  0  0  0  0  0  0  0  0  0
   -4.4660    8.3582   -5.2457 H   0  0  0  0  0  0  0  0  0  0  0  0
   -3.5862    7.7296   -6.6801 H   0  0  0  0  0  0  0  0  0  0  0  0
   -5.3817    7.7830   -6.6801 H   0  0  0  0  0  0  0  0  0  0  0  0
   -6.1611    4.9983   -4.9868 H   0  0  0  0  0  0  0  0  0  0  0  0
   -6.3409    5.9830   -6.4783 H   0  0  0  0  0  0  0  0  0  0  0  0
   -5.2714    4.5398   -6.4783 H   0  0  0  0  0  0  0  0  0  0  0  0
   -2.5111    5.2942   -5.3919 H   0  0  0  0  0  0  0  0  0  0  0  0
   -3.5013    4.7563   -6.7907 H   0  0  0  0  0  0  0  0  0  0  0  0
   -2.7613    6.3930   -6.7907 H   0  0  0  0  0  0  0  0  0  0  0  0
   -7.6550    5.6744   -3.5690 H   0  0  0  0  0  0  0  0  0  0  0  0
   -7.5714    6.5083   -1.9547 H   0  0  0  0  0  0  0  0  0  0  0  0
   -9.0925    7.2154   -4.4177 H   0  0  0  0  0  0  0  0  0  0  0  0
   -9.5163    7.3647   -2.6562 H   0  0  0  0  0  0  0  0  0  0  0  0
  -10.3995   13.2518   -4.6552 H   0  0  0  0  0  0  0  0  0  0  0  0
   -9.2252   14.0743   -5.6052 H   0  0  0  0  0  0  0  0  0  0  0  0
  -10.4430   11.2369   -6.2487 H   0  0  0  0  0  0  0  0  0  0  0  0
  -10.8772   12.7050   -7.1355 H   0  0  0  0  0  0  0  0  0  0  0  0
   -5.6568   11.2381  -10.2473 H   0  0  0  0  0  0  0  0  0  0  0  0
   -3.2558   11.1368  -10.8747 H   0  0  0  0  0  0  0  0  0  0  0  0
  1  2  1  0
  2  3  1  0
  2  4  2  3
  4  5  1  0
  5  6  2  0
  5  7  1  0
  7  8  1  0
  8  9  1  0
  9 10  2  0
 10 11  1  0
 11 12  1  0
 12 13  2  0
 13 14  1  0
 14 15  1  0
 15 16  1  0
 16 17  1  0
 17 18  1  0
 18 19  1  0
 19 20  1  0
 20 21  1  0
 21 22  1  0
 22 23  1  0
 14 24  1  0
 24 25  2  0
 25 26  1  0
 26 27  1  0
 27 28  1  0
 28 29  2  0
 28 30  1  0
 30 31  1  0
 31 32  1  0
 32 33  1  0
 33 34  1  0
 34 35  1  0
 35 36  2  0
 35 37  1  0
 37 38  1  0
 38 39  1  0
 38 40  1  0
 38 41  1  0
 34 42  1  0
 42 43  1  0
 27 44  1  0
 44 45  1  0
 11 46  2  0
 46 47  1  0
 47 48  2  0
 48 49  1  0
 49 50  1  0
 49 51  1  0
 49 52  1  0
 48  9  1  0
 25 12  1  0
 43 31  1  0
 23 18  1  0
 45 24  1  0
  1 53  1  0
  1 54  1  0
  1 55  1  0
  3 56  1  0
  3 57  1  0
  3 58  1  0
  4 59  1  0
  7 60  1  0
  8 61  1  0
  8 62  1  0
 10 63  1  0
 15 64  1  0
 15 65  1  0
 16 66  1  0
 16 67  1  0
 17 68  1  0
 17 69  1  0
 19 70  1  0
 19 71  1  0
 20 72  1  0
 20 73  1  0
 22 74  1  0
 22 75  1  0
 23 76  1  0
 23 77  1  0
 26 78  1  0
 26 79  1  0
 30 80  1  0
 30 81  1  0
 31 82  1  0
 32 83  1  0
 32 84  1  0
 33 85  1  0
 33 86  1  0
 39 87  1  0
 39 88  1  0
 39 89  1  0
 40 90  1  0
 40 91  1  0
 40 92  1  0
 41 93  1  0
 41 94  1  0
 41 95  1  0
 42 96  1  0
 42 97  1  0
 43 98  1  0
 43 99  1  0
 44100  1  0
 44101  1  0
 45102  1  0
 45103  1  0
 46104  1  0
 47105  1  0
M  END
$$$$
