
     RDKit          3D

 88 93  0  0  0  0  0  0  0  0999 V2000
   -7.8100   12.9590   -3.6640 C   0  0  0  0  0  0  0  0  0  0  0  0
   -7.9040   12.0030   -2.0760 S   0  0  0  0  0  6  0  0  0  0  0  0
   -7.7370   12.9740   -0.9570 O   0  0  0  0  0  0  0  0  0  0  0  0
   -6.7460   11.0550   -2.1260 O   0  0  0  0  0  0  0  0  0  0  0  0
   -9.4210   11.1930   -2.0460 N   0  0  0  0  0  0  0  0  0  0  0  0
   -9.6730   10.3380   -0.9620 C   0  0  0  0  0  0  0  0  0  0  0  0
  -10.0620    8.9120   -1.3040 C   0  0  0  0  0  0  0  0  0  0  0  0
   -9.3180    8.5460   -2.5770 C   0  0  0  0  0  0  0  0  0  0  0  0
   -9.3530    9.4230   -3.5700 C   0  0  0  0  0  0  0  0  0  0  0  0
   -8.6350    8.8160   -4.6730 C   0  0  0  0  0  0  0  0  0  0  0  0
   -8.5550    9.5670   -5.8440 C   0  0  0  0  0  0  0  0  0  0  0  0
   -9.3910   10.5270   -6.3770 C   0  0  0  0  0  0  0  0  0  0  0  0
   -9.5850   11.1000   -7.6200 C   0  0  0  0  0  0  0  0  0  0  0  0
   -8.5290   10.4240   -8.6960 C   0  0  0  0  0  0  0  0  0  0  0  0
   -8.6750   11.0630  -10.2510 Cl  0  0  0  0  0  0  0  0  0  0  0  0
   -8.0730    9.7640   -7.8990 C   0  0  0  0  0  0  0  0  0  0  0  0
   -6.3120   10.0610   -8.4570 C   0  0  0  0  0  0  0  0  0  0  0  0
   -5.2010   10.2550   -8.8250 C   0  0  0  0  0  0  0  0  0  0  0  0
   -3.8890   10.4960   -9.2730 C   0  0  0  0  0  0  0  0  0  0  0  0
   -3.7890   10.8400  -10.6190 C   0  0  0  0  0  0  0  0  0  0  0  0
   -2.6620   11.5980  -11.0400 C   0  0  0  0  0  0  0  0  0  0  0  0
   -1.7350   11.9500  -10.1110 C   0  0  0  0  0  0  0  0  0  0  0  0
   -0.4400   13.0610  -10.6940 Cl  0  0  0  0  0  0  0  0  0  0  0  0
   -1.8120   11.6110   -8.8010 C   0  0  0  0  0  0  0  0  0  0  0  0
   -0.9400   12.1210   -7.7340 C   0  0  0  0  0  0  0  0  0  0  0  0
   -0.3760   11.3440   -6.7750 N   0  0  0  0  0  4  0  0  0  0  0  0
   -1.1260   10.8750   -5.6330 C   0  0  0  0  0  0  0  0  0  0  0  0
   -1.0210    9.3780   -5.6600 C   0  0  0  0  0  0  0  0  0  0  0  0
   -0.4250    8.7190   -6.7210 C   0  0  0  0  0  0  0  0  0  0  0  0
   -0.2490    7.3640   -6.7070 C   0  0  0  0  0  0  0  0  0  0  0  0
   -0.6540    6.5990   -5.6320 C   0  0  0  0  0  0  0  0  0  0  0  0
   -1.2400    7.2810   -4.5660 C   0  0  0  0  0  0  0  0  0  0  0  0
   -1.4190    8.6430   -4.5800 C   0  0  0  0  0  0  0  0  0  0  0  0
   -2.9390   10.8480   -8.3580 C   0  0  0  0  0  0  0  0  0  0  0  0
   -7.5220    8.9770   -6.9680 C   0  0  0  0  0  0  0  0  0  0  0  0
   -8.2480    7.6570   -4.1860 N   0  0  0  0  0  0  0  0  0  0  0  0
   -8.6190    7.4370   -2.9380 N   0  0  0  0  0  0  0  0  0  0  0  0
   -8.4350    6.3590   -1.9950 C   0  0  0  0  0  0  0  0  0  0  0  0
   -7.0150    6.3990   -1.4810 C   0  0  0  0  0  0  0  0  0  0  0  0
   -5.9760    5.7650   -2.2980 C   0  0  0  0  0  0  0  0  0  0  0  0
   -5.7080    6.4210   -3.5500 N   0  0  0  0  0  4  0  0  0  0  0  0
   -4.8270    7.5720   -3.4070 C   0  0  0  0  0  0  0  0  0  0  0  0
   -4.7190    8.2720   -4.7480 C   0  0  0  0  0  0  0  0  0  0  0  0
   -4.3310    7.4680   -5.8040 O   0  0  0  0  0  0  0  0  0  0  0  0
   -4.3130    6.1410   -5.5740 C   0  0  0  0  0  0  0  0  0  0  0  0
   -5.3690    5.5700   -4.6240 C   0  0  0  0  0  0  0  0  0  0  0  0
   -9.8450   10.7940   -3.3660 C   0  0  0  0  0  0  0  0  0  0  0  0
   -7.7046   14.0310   -3.4409 H   0  0  0  0  0  0  0  0  0  0  0  0
   -6.9410   12.6184   -4.2461 H   0  0  0  0  0  0  0  0  0  0  0  0
   -8.7287   12.7942   -4.2461 H   0  0  0  0  0  0  0  0  0  0  0  0
   -8.7611   10.2981   -0.3482 H   0  0  0  0  0  0  0  0  0  0  0  0
  -10.5482   10.7650   -0.4503 H   0  0  0  0  0  0  0  0  0  0  0  0
   -9.7715    8.2343   -0.4877 H   0  0  0  0  0  0  0  0  0  0  0  0
  -11.1495    8.8227   -1.4435 H   0  0  0  0  0  0  0  0  0  0  0  0
  -10.0759   10.9407   -5.6222 H   0  0  0  0  0  0  0  0  0  0  0  0
  -10.3237   11.8805   -7.8549 H   0  0  0  0  0  0  0  0  0  0  0  0
   -4.5625   10.5330  -11.3383 H   0  0  0  0  0  0  0  0  0  0  0  0
   -2.5434   11.8925  -12.0932 H   0  0  0  0  0  0  0  0  0  0  0  0
   -0.1021   12.6168   -8.2460 H   0  0  0  0  0  0  0  0  0  0  0  0
   -1.6599   12.6992   -7.1361 H   0  0  0  0  0  0  0  0  0  0  0  0
   -0.0245   10.5030   -7.2547 H   0  0  0  0  0  0  0  0  0  0  0  0
    0.2986   11.9902   -6.3411 H   0  0  0  0  0  0  0  0  0  0  0  0
   -0.6947   11.2723   -4.7023 H   0  0  0  0  0  0  0  0  0  0  0  0
   -2.1737   11.2076   -5.6730 H   0  0  0  0  0  0  0  0  0  0  0  0
   -0.0862    9.2976   -7.5931 H   0  0  0  0  0  0  0  0  0  0  0  0
    0.2250    6.8731   -7.5698 H   0  0  0  0  0  0  0  0  0  0  0  0
   -0.5213    5.5071   -5.6168 H   0  0  0  0  0  0  0  0  0  0  0  0
   -1.5695    6.7099   -3.6855 H   0  0  0  0  0  0  0  0  0  0  0  0
   -1.8846    9.1434   -3.7181 H   0  0  0  0  0  0  0  0  0  0  0  0
   -3.0375   10.5517   -7.3033 H   0  0  0  0  0  0  0  0  0  0  0  0
   -6.7083    8.2368   -6.9609 H   0  0  0  0  0  0  0  0  0  0  0  0
   -9.1356    6.4786   -1.1554 H   0  0  0  0  0  0  0  0  0  0  0  0
   -8.6271    5.3945   -2.4877 H   0  0  0  0  0  0  0  0  0  0  0  0
   -6.7387    7.4570   -1.3614 H   0  0  0  0  0  0  0  0  0  0  0  0
   -7.0385    5.8078   -0.5537 H   0  0  0  0  0  0  0  0  0  0  0  0
   -5.0440    5.7488   -1.7139 H   0  0  0  0  0  0  0  0  0  0  0  0
   -6.3492    4.7610   -2.5485 H   0  0  0  0  0  0  0  0  0  0  0  0
   -6.6236    6.7943   -3.8386 H   0  0  0  0  0  0  0  0  0  0  0  0
   -5.2418    8.2650   -2.6602 H   0  0  0  0  0  0  0  0  0  0  0  0
   -3.8313    7.2426   -3.0752 H   0  0  0  0  0  0  0  0  0  0  0  0
   -5.7039    8.6983   -4.9893 H   0  0  0  0  0  0  0  0  0  0  0  0
   -3.9280    9.0278   -4.6341 H   0  0  0  0  0  0  0  0  0  0  0  0
   -4.4370    5.6375   -6.5441 H   0  0  0  0  0  0  0  0  0  0  0  0
   -3.3543    5.9594   -5.0662 H   0  0  0  0  0  0  0  0  0  0  0  0
   -6.2813    5.3686   -5.2046 H   0  0  0  0  0  0  0  0  0  0  0  0
   -4.9342    4.6622   -4.1802 H   0  0  0  0  0  0  0  0  0  0  0  0
   -9.4155   11.4676   -4.1222 H   0  0  0  0  0  0  0  0  0  0  0  0
  -10.9399   10.8404   -3.4614 H   0  0  0  0  0  0  0  0  0  0  0  0
  1  2  1  0
  2  3  2  0
  2  4  2  0
  2  5  1  0
  5  6  1  0
  6  7  1  0
  7  8  1  0
  8  9  2  0
  9 10  1  0
 10 11  1  0
 11 12  2  0
 12 13  1  0
 13 14  2  0
 14 15  1  0
 14 16  1  0
 16 17  1  0
 17 18  3  0
 18 19  1  0
 19 20  2  0
 20 21  1  0
 21 22  2  0
 22 23  1  0
 22 24  1  0
 24 25  1  0
 25 26  1  0
 26 27  1  0
 27 28  1  0
 28 29  2  0
 29 30  1  0
 30 31  2  0
 31 32  1  0
 32 33  2  0
 24 34  2  0
 16 35  2  0
 10 36  2  0
 36 37  1  0
 37 38  1  0
 38 39  1  0
 39 40  1  0
 40 41  1  0
 41 42  1  0
 42 43  1  0
 43 44  1  0
 44 45  1  0
 45 46  1  0
  9 47  1  0
 47  5  1  0
 37  8  1  0
 46 41  1  0
 35 11  1  0
 34 19  1  0
 33 28  1  0
  1 48  1  0
  1 49  1  0
  1 50  1  0
  6 51  1  0
  6 52  1  0
  7 53  1  0
  7 54  1  0
 12 55  1  0
 13 56  1  0
 20 57  1  0
 21 58  1  0
 25 59  1  0
 25 60  1  0
 26 61  1  0
 26 62  1  0
 27 63  1  0
 27 64  1  0
 29 65  1  0
 30 66  1  0
 31 67  1  0
 32 68  1  0
 33 69  1  0
 34 70  1  0
 35 71  1  0
 38 72  1  0
 38 73  1  0
 39 74  1  0
 39 75  1  0
 40 76  1  0
 40 77  1  0
 41 78  1  0
 42 79  1  0
 42 80  1  0
 43 81  1  0
 43 82  1  0
 45 83  1  0
 45 84  1  0
 46 85  1  0
 46 86  1  0
 47 87  1  0
 47 88  1  0
M  CHG  2  26   1  41   1
M  END
$$$$
