
     RDKit          3D

 91 95  0  0  0  0  0  0  0  0999 V2000
   -8.5260   12.2960   -3.3680 C   0  0  0  0  0  0  0  0  0  0  0  0
   -8.6470   12.3170   -1.8770 C   0  0  0  0  0  0  0  0  0  0  0  0
   -9.9480   13.0130   -1.5270 C   0  0  0  0  0  0  0  0  0  0  0  0
   -7.5050   13.0620   -1.2670 C   0  0  0  0  0  0  0  0  0  0  0  0
   -8.7090   10.9190   -1.2630 C   0  0  0  0  0  0  0  0  0  0  0  0
   -7.5570   10.0640   -1.6570 C   0  0  0  0  0  0  0  0  0  0  0  0
   -7.8550    8.8260   -2.4220 C   0  0  0  0  0  0  0  0  0  0  0  0
   -9.1550    8.2940   -2.3460 N   0  0  0  0  0  0  0  0  0  0  0  0
   -9.8230    7.9110   -3.5190 C   0  0  0  0  0  0  0  0  0  0  0  0
   -9.2930    8.3170   -4.8360 C   0  0  0  0  0  0  0  0  0  0  0  0
   -8.1030    7.5870   -5.3570 C   0  0  0  0  0  0  0  0  0  0  0  0
   -7.3710    8.4420   -6.3130 N   0  0  0  0  0  0  0  0  0  0  0  0
   -6.1240    8.8470   -6.2710 N   0  0  0  0  0  0  0  0  0  0  0  0
   -5.8230    9.6170   -7.3180 C   0  0  0  0  0  0  0  0  0  0  0  0
   -4.5590   10.2500   -7.6690 C   0  0  0  0  0  0  0  0  0  0  0  0
   -4.4830   11.4900   -8.2590 C   0  0  0  0  0  0  0  0  0  0  0  0
   -3.2700   12.0640   -8.6180 C   0  0  0  0  0  0  0  0  0  0  0  0
   -2.0720   11.4240   -8.4020 C   0  0  0  0  0  0  0  0  0  0  0  0
   -0.7680   12.0250   -8.7900 C   0  0  0  0  0  0  0  0  0  0  0  0
   -0.1100   12.5470   -7.6940 F   0  0  0  0  0  0  0  0  0  0  0  0
    0.0020   11.0850   -9.4690 F   0  0  0  0  0  0  0  0  0  0  0  0
   -1.0270   13.0620   -9.6710 F   0  0  0  0  0  0  0  0  0  0  0  0
   -2.1360   10.1660   -7.8040 C   0  0  0  0  0  0  0  0  0  0  0  0
   -0.8710    9.4600   -7.5660 C   0  0  0  0  0  0  0  0  0  0  0  0
   -1.0670    8.0540   -7.2680 N   0  0  0  0  0  0  0  0  0  0  0  0
   -0.9260    7.7980   -5.8450 C   0  0  0  0  0  0  0  0  0  0  0  0
   -2.2220    7.4050   -5.2480 C   0  0  0  0  0  0  0  0  0  0  0  0
   -2.7010    8.1640   -4.1800 C   0  0  0  0  0  0  0  0  0  0  0  0
   -3.9040    7.8030   -3.6170 C   0  0  0  0  0  0  0  0  0  0  0  0
   -4.6070    6.7190   -4.1060 C   0  0  0  0  0  0  0  0  0  0  0  0
   -5.8010    6.3760   -3.5330 F   0  0  0  0  0  0  0  0  0  0  0  0
   -4.1470    5.9600   -5.1590 C   0  0  0  0  0  0  0  0  0  0  0  0
   -2.9370    6.3140   -5.7310 C   0  0  0  0  0  0  0  0  0  0  0  0
   -3.3420    9.6040   -7.4530 C   0  0  0  0  0  0  0  0  0  0  0  0
   -6.9790    9.6990   -8.0840 C   0  0  0  0  0  0  0  0  0  0  0  0
   -7.9250    8.9680   -7.4460 C   0  0  0  0  0  0  0  0  0  0  0  0
   -9.3210    8.8120   -7.9510 C   0  0  0  0  0  0  0  0  0  0  0  0
   -9.5280    9.5290   -9.2340 C   0  0  0  0  0  0  0  0  0  0  0  0
   -8.6660   10.6290   -9.4650 N   0  0  0  0  0  0  0  0  0  0  0  0
   -9.1650   12.1340   -8.8580 S   0  0  0  0  0  6  0  0  0  0  0  0
   -7.6970   12.9990   -8.3020 C   0  0  0  0  0  0  0  0  0  0  0  0
   -9.8690   12.9630   -9.8750 O   0  0  0  0  0  0  0  0  0  0  0  0
  -10.0490   11.9650   -7.6370 O   0  0  0  0  0  0  0  0  0  0  0  0
   -7.2690   10.3890   -9.3880 C   0  0  0  0  0  0  0  0  0  0  0  0
   -9.9680    8.7820   -1.2690 C   0  0  0  0  0  0  0  0  0  0  0  0
  -10.0620   10.3040   -1.4410 C   0  0  0  0  0  0  0  0  0  0  0  0
   -7.4780   12.1141   -3.6483 H   0  0  0  0  0  0  0  0  0  0  0  0
   -9.1591   11.4943   -3.7760 H   0  0  0  0  0  0  0  0  0  0  0  0
   -8.8519   13.2641   -3.7760 H   0  0  0  0  0  0  0  0  0  0  0  0
  -10.0515   13.0684   -0.4333 H   0  0  0  0  0  0  0  0  0  0  0  0
   -9.9444   14.0297   -1.9469 H   0  0  0  0  0  0  0  0  0  0  0  0
  -10.7918   12.4458   -1.9469 H   0  0  0  0  0  0  0  0  0  0  0  0
   -7.5794   13.0135   -0.1706 H   0  0  0  0  0  0  0  0  0  0  0  0
   -6.5566   12.6083   -1.5906 H   0  0  0  0  0  0  0  0  0  0  0  0
   -7.5380   14.1128   -1.5906 H   0  0  0  0  0  0  0  0  0  0  0  0
   -8.5857   11.0170   -0.1743 H   0  0  0  0  0  0  0  0  0  0  0  0
   -6.8851   10.6792   -2.2735 H   0  0  0  0  0  0  0  0  0  0  0  0
   -7.1300    9.7116   -0.7065 H   0  0  0  0  0  0  0  0  0  0  0  0
   -7.6519    9.0406   -3.4816 H   0  0  0  0  0  0  0  0  0  0  0  0
   -7.2190    8.0585   -1.9567 H   0  0  0  0  0  0  0  0  0  0  0  0
   -9.8624    6.8117   -3.5176 H   0  0  0  0  0  0  0  0  0  0  0  0
  -10.7791    8.4510   -3.4536 H   0  0  0  0  0  0  0  0  0  0  0  0
  -10.1031    8.1912   -5.5695 H   0  0  0  0  0  0  0  0  0  0  0  0
   -8.9443    9.3500   -4.6898 H   0  0  0  0  0  0  0  0  0  0  0  0
   -7.4398    7.3248   -4.5195 H   0  0  0  0  0  0  0  0  0  0  0  0
   -8.4339    6.6710   -5.8684 H   0  0  0  0  0  0  0  0  0  0  0  0
   -5.4127   12.0451   -8.4529 H   0  0  0  0  0  0  0  0  0  0  0  0
   -3.2676   13.0584   -9.0883 H   0  0  0  0  0  0  0  0  0  0  0  0
   -0.2444    9.5458   -8.4660 H   0  0  0  0  0  0  0  0  0  0  0  0
   -0.3893    9.9228   -6.6921 H   0  0  0  0  0  0  0  0  0  0  0  0
   -2.0118    7.7747   -7.5683 H   0  0  0  0  0  0  0  0  0  0  0  0
   -0.1995    6.9857   -5.6955 H   0  0  0  0  0  0  0  0  0  0  0  0
   -0.5784    8.7194   -5.3550 H   0  0  0  0  0  0  0  0  0  0  0  0
   -2.1337    9.0260   -3.7989 H   0  0  0  0  0  0  0  0  0  0  0  0
   -4.3080    8.3810   -2.7728 H   0  0  0  0  0  0  0  0  0  0  0  0
   -4.7223    5.1004   -5.5334 H   0  0  0  0  0  0  0  0  0  0  0  0
   -2.5385    5.7288   -6.5728 H   0  0  0  0  0  0  0  0  0  0  0  0
   -3.3464    8.6086   -6.9848 H   0  0  0  0  0  0  0  0  0  0  0  0
   -9.5265    7.7423   -8.1041 H   0  0  0  0  0  0  0  0  0  0  0  0
  -10.0041    9.2438   -7.2047 H   0  0  0  0  0  0  0  0  0  0  0  0
   -9.3836    8.8079  -10.0521 H   0  0  0  0  0  0  0  0  0  0  0  0
  -10.5442    9.9474   -9.1850 H   0  0  0  0  0  0  0  0  0  0  0  0
   -7.6739   13.0126   -7.2023 H   0  0  0  0  0  0  0  0  0  0  0  0
   -6.8021   12.4838   -8.6812 H   0  0  0  0  0  0  0  0  0  0  0  0
   -7.7140   14.0314   -8.6812 H   0  0  0  0  0  0  0  0  0  0  0  0
   -6.9550    9.7486  -10.2254 H   0  0  0  0  0  0  0  0  0  0  0  0
   -6.7178   11.3393   -9.4444 H   0  0  0  0  0  0  0  0  0  0  0  0
  -10.9708    8.3325   -1.3174 H   0  0  0  0  0  0  0  0  0  0  0  0
   -9.5310    8.5206   -0.2940 H   0  0  0  0  0  0  0  0  0  0  0  0
  -10.4385   10.5351   -2.4484 H   0  0  0  0  0  0  0  0  0  0  0  0
  -10.7491   10.7131   -0.6856 H   0  0  0  0  0  0  0  0  0  0  0  0
  1  2  1  0
  2  3  1  0
  2  4  1  0
  2  5  1  0
  5  6  1  0
  6  7  1  0
  7  8  1  0
  8  9  1  0
  9 10  1  0
 10 11  1  0
 11 12  1  0
 12 13  1  0
 13 14  2  0
 14 15  1  0
 15 16  2  0
 16 17  1  0
 17 18  2  0
 18 19  1  0
 19 20  1  0
 19 21  1  0
 19 22  1  0
 18 23  1  0
 23 24  1  0
 24 25  1  0
 25 26  1  0
 26 27  1  0
 27 28  2  0
 28 29  1  0
 29 30  2  0
 30 31  1  0
 30 32  1  0
 32 33  2  0
 23 34  2  0
 14 35  1  0
 35 36  2  0
 36 37  1  0
 37 38  1  0
 38 39  1  0
 39 40  1  0
 40 41  1  0
 40 42  2  0
 40 43  2  0
 39 44  1  0
  8 45  1  0
 45 46  1  0
 46  5  1  0
 36 12  1  0
 34 15  1  0
 44 35  1  0
 33 27  1  0
  1 47  1  0
  1 48  1  0
  1 49  1  0
  3 50  1  0
  3 51  1  0
  3 52  1  0
  4 53  1  0
  4 54  1  0
  4 55  1  0
  5 56  1  0
  6 57  1  0
  6 58  1  0
  7 59  1  0
  7 60  1  0
  9 61  1  0
  9 62  1  0
 10 63  1  0
 10 64  1  0
 11 65  1  0
 11 66  1  0
 16 67  1  0
 17 68  1  0
 24 69  1  0
 24 70  1  0
 25 71  1  0
 26 72  1  0
 26 73  1  0
 28 74  1  0
 29 75  1  0
 32 76  1  0
 33 77  1  0
 34 78  1  0
 37 79  1  0
 37 80  1  0
 38 81  1  0
 38 82  1  0
 41 83  1  0
 41 84  1  0
 41 85  1  0
 44 86  1  0
 44 87  1  0
 45 88  1  0
 45 89  1  0
 46 90  1  0
 46 91  1  0
M  END
$$$$
