
     RDKit          3D

 85 88  0  0  0  0  0  0  0  0999 V2000
   -5.2530    7.5050   -2.6850 C   0  0  0  0  0  0  0  0  0  0  0  0
   -5.5530    6.2400   -3.3740 C   0  0  0  0  0  0  0  0  0  0  0  0
   -6.5040    5.3310   -2.5470 C   0  0  0  0  0  0  0  0  0  0  0  0
   -5.1700    5.7550   -4.4960 C   0  0  0  0  0  0  0  0  0  0  0  0
   -4.2890    6.2420   -5.5510 C   0  0  0  0  0  0  0  0  0  0  0  0
   -4.0070    5.4590   -6.5550 O   0  0  0  0  0  0  0  0  0  0  0  0
   -3.7480    7.5030   -5.4980 N   0  0  0  0  0  0  0  0  0  0  0  0
   -2.8520    8.2100   -6.3180 C   0  0  0  0  0  0  0  0  0  0  0  0
   -3.3520    9.2610   -7.2120 C   0  0  0  0  0  0  0  0  0  0  0  0
   -4.7280    9.5100   -7.3190 C   0  0  0  0  0  0  0  0  0  0  0  0
   -5.2370   10.6660   -7.8540 C   0  0  0  0  0  0  0  0  0  0  0  0
   -6.6050   11.1430   -7.9040 C   0  0  0  0  0  0  0  0  0  0  0  0
   -7.1320   11.5130   -9.1530 N   0  0  0  0  0  0  0  0  0  0  0  0
   -8.3780   11.8320   -9.0620 N   0  0  0  0  0  0  0  0  0  0  0  0
   -9.3290   12.2320  -10.1340 C   0  0  0  0  0  0  0  0  0  0  0  0
   -9.7630   11.0700  -10.9770 C   0  0  0  0  0  0  0  0  0  0  0  0
   -9.9600    9.8610  -10.0780 C   0  0  0  0  0  0  0  0  0  0  0  0
   -8.8690    8.8960  -10.2350 N   0  0  0  0  0  0  0  0  0  0  0  0
   -8.5490    8.4390   -8.8640 C   0  0  0  0  0  0  0  0  0  0  0  0
   -9.5000    7.7510  -10.9350 C   0  0  0  0  0  0  0  0  0  0  0  0
   -8.6960   11.6860   -7.7740 C   0  0  0  0  0  0  0  0  0  0  0  0
   -7.6100   11.2590   -7.0360 C   0  0  0  0  0  0  0  0  0  0  0  0
   -7.8020   11.0280   -5.5840 C   0  0  0  0  0  0  0  0  0  0  0  0
   -8.7880   11.8420   -4.9830 N   0  0  0  0  0  0  0  0  0  0  0  0
   -8.9320   12.0050   -3.5910 C   0  0  0  0  0  0  0  0  0  0  0  0
   -9.5780   13.0620   -3.2260 O   0  0  0  0  0  0  0  0  0  0  0  0
   -8.4520   11.1300   -2.5350 C   0  0  0  0  0  0  0  0  0  0  0  0
   -9.6090   10.1630   -2.1680 C   0  0  0  0  0  0  0  0  0  0  0  0
   -9.9060    9.2400   -3.3140 C   0  0  0  0  0  0  0  0  0  0  0  0
  -10.0600    7.8160   -2.7900 C   0  0  0  0  0  0  0  0  0  0  0  0
   -8.7680    7.4050   -2.3480 N   0  0  0  0  0  0  0  0  0  0  0  0
   -8.2690    8.2370   -1.2750 C   0  0  0  0  0  0  0  0  0  0  0  0
   -9.1750    9.4000   -0.9400 C   0  0  0  0  0  0  0  0  0  0  0  0
   -9.7630   12.6110   -5.8090 C   0  0  0  0  0  0  0  0  0  0  0  0
  -10.0140   11.9340   -7.1080 C   0  0  0  0  0  0  0  0  0  0  0  0
   -4.2630   11.5950   -8.3090 C   0  0  0  0  0  0  0  0  0  0  0  0
   -2.9300   11.3540   -8.2130 C   0  0  0  0  0  0  0  0  0  0  0  0
   -2.4270   10.2000   -7.6710 C   0  0  0  0  0  0  0  0  0  0  0  0
   -0.9540    9.9690   -7.6210 C   0  0  0  0  0  0  0  0  0  0  0  0
   -0.5810    8.8280   -7.0050 F   0  0  0  0  0  0  0  0  0  0  0  0
   -0.4100   10.1100   -8.8780 F   0  0  0  0  0  0  0  0  0  0  0  0
   -0.3790   11.0180   -6.8790 F   0  0  0  0  0  0  0  0  0  0  0  0
   -5.2903    7.3477   -1.5969 H   0  0  0  0  0  0  0  0  0  0  0  0
   -4.2483    7.8493   -2.9715 H   0  0  0  0  0  0  0  0  0  0  0  0
   -5.9961    8.2638   -2.9715 H   0  0  0  0  0  0  0  0  0  0  0  0
   -6.3294    5.4979   -1.4738 H   0  0  0  0  0  0  0  0  0  0  0  0
   -7.5485    5.5751   -2.7909 H   0  0  0  0  0  0  0  0  0  0  0  0
   -6.3073    4.2766   -2.7909 H   0  0  0  0  0  0  0  0  0  0  0  0
   -5.5949    4.7628   -4.7082 H   0  0  0  0  0  0  0  0  0  0  0  0
   -4.0670    8.0467   -4.6834 H   0  0  0  0  0  0  0  0  0  0  0  0
   -2.1163    8.6832   -5.6511 H   0  0  0  0  0  0  0  0  0  0  0  0
   -2.4821    7.4410   -7.0121 H   0  0  0  0  0  0  0  0  0  0  0  0
   -5.4303    8.7443   -6.9579 H   0  0  0  0  0  0  0  0  0  0  0  0
  -10.2181   12.6815   -9.6676 H   0  0  0  0  0  0  0  0  0  0  0  0
   -8.8123   12.9477  -10.7904 H   0  0  0  0  0  0  0  0  0  0  0  0
  -10.7091   11.3129  -11.4829 H   0  0  0  0  0  0  0  0  0  0  0  0
   -8.9972   10.8514  -11.7358 H   0  0  0  0  0  0  0  0  0  0  0  0
   -9.9943   10.1954   -9.0306 H   0  0  0  0  0  0  0  0  0  0  0  0
  -10.9019    9.3684  -10.3610 H   0  0  0  0  0  0  0  0  0  0  0  0
   -9.0207    9.1127   -8.1335 H   0  0  0  0  0  0  0  0  0  0  0  0
   -8.9299    7.4172   -8.7198 H   0  0  0  0  0  0  0  0  0  0  0  0
   -7.4585    8.4475   -8.7198 H   0  0  0  0  0  0  0  0  0  0  0  0
   -9.8923    7.0392  -10.1938 H   0  0  0  0  0  0  0  0  0  0  0  0
  -10.3245    8.1158  -11.5652 H   0  0  0  0  0  0  0  0  0  0  0  0
   -8.7513    7.2488  -11.5652 H   0  0  0  0  0  0  0  0  0  0  0  0
   -8.0907    9.9765   -5.4394 H   0  0  0  0  0  0  0  0  0  0  0  0
   -6.8486   11.2850   -5.0993 H   0  0  0  0  0  0  0  0  0  0  0  0
   -7.5818   10.5574   -2.8884 H   0  0  0  0  0  0  0  0  0  0  0  0
   -8.1437   11.7161   -1.6566 H   0  0  0  0  0  0  0  0  0  0  0  0
  -10.5373   10.7156   -1.9609 H   0  0  0  0  0  0  0  0  0  0  0  0
  -10.8390    9.5533   -3.8054 H   0  0  0  0  0  0  0  0  0  0  0  0
   -9.0802    9.2774   -4.0398 H   0  0  0  0  0  0  0  0  0  0  0  0
  -10.7728    7.7943   -1.9525 H   0  0  0  0  0  0  0  0  0  0  0  0
  -10.4454    7.1443   -3.5712 H   0  0  0  0  0  0  0  0  0  0  0  0
   -8.8251    6.4321   -2.0146 H   0  0  0  0  0  0  0  0  0  0  0  0
   -8.1558    7.6139   -0.3756 H   0  0  0  0  0  0  0  0  0  0  0  0
   -7.3119    8.6606   -1.6134 H   0  0  0  0  0  0  0  0  0  0  0  0
  -10.0696    9.0151   -0.4286 H   0  0  0  0  0  0  0  0  0  0  0  0
   -8.6100   10.0914   -0.2976 H   0  0  0  0  0  0  0  0  0  0  0  0
  -10.7117   12.6960   -5.2588 H   0  0  0  0  0  0  0  0  0  0  0  0
   -9.3421   13.6073   -6.0096 H   0  0  0  0  0  0  0  0  0  0  0  0
  -10.5287   10.9774   -6.9350 H   0  0  0  0  0  0  0  0  0  0  0  0
  -10.6476   12.5661   -7.7475 H   0  0  0  0  0  0  0  0  0  0  0  0
   -4.6004   12.5424   -8.7545 H   0  0  0  0  0  0  0  0  0  0  0  0
   -2.2270   12.1141   -8.5845 H   0  0  0  0  0  0  0  0  0  0  0  0
  1  2  1  0
  2  3  1  0
  2  4  2  3
  4  5  1  0
  5  6  2  0
  5  7  1  0
  7  8  1  0
  8  9  1  0
  9 10  2  0
 10 11  1  0
 11 12  1  0
 12 13  2  0
 13 14  1  0
 14 15  1  0
 15 16  1  0
 16 17  1  0
 17 18  1  0
 18 19  1  0
 18 20  1  0
 14 21  1  0
 21 22  2  0
 22 23  1  0
 23 24  1  0
 24 25  1  0
 25 26  2  0
 25 27  1  0
 27 28  1  0
 28 29  1  0
 29 30  1  0
 30 31  1  0
 31 32  1  0
 32 33  1  0
 24 34  1  0
 34 35  1  0
 11 36  2  0
 36 37  1  0
 37 38  2  0
 38 39  1  0
 39 40  1  0
 39 41  1  0
 39 42  1  0
 38  9  1  0
 22 12  1  0
 33 28  1  0
 35 21  1  0
  1 43  1  0
  1 44  1  0
  1 45  1  0
  3 46  1  0
  3 47  1  0
  3 48  1  0
  4 49  1  0
  7 50  1  0
  8 51  1  0
  8 52  1  0
 10 53  1  0
 15 54  1  0
 15 55  1  0
 16 56  1  0
 16 57  1  0
 17 58  1  0
 17 59  1  0
 19 60  1  0
 19 61  1  0
 19 62  1  0
 20 63  1  0
 20 64  1  0
 20 65  1  0
 23 66  1  0
 23 67  1  0
 27 68  1  0
 27 69  1  0
 28 70  1  0
 29 71  1  0
 29 72  1  0
 30 73  1  0
 30 74  1  0
 31 75  1  0
 32 76  1  0
 32 77  1  0
 33 78  1  0
 33 79  1  0
 34 80  1  0
 34 81  1  0
 35 82  1  0
 35 83  1  0
 36 84  1  0
 37 85  1  0
M  END
$$$$
