
     RDKit          3D

 89 94  0  0  0  0  0  0  0  0999 V2000
   -4.3580    7.6870   -2.3370 C   0  0  0  0  0  0  0  0  0  0  0  0
   -5.6760    7.4500   -3.0930 C   0  0  1  0  0  0  0  0  0  0  0  0
   -5.3360    7.9520   -4.5020 C   0  0  0  0  0  0  0  0  0  0  0  0
   -4.4760    7.0360   -5.1040 O   0  0  0  0  0  0  0  0  0  0  0  0
   -5.0970    5.7780   -5.2460 C   0  0  0  0  0  0  0  0  0  0  0  0
   -5.3360    5.1790   -3.9150 C   0  0  0  0  0  0  0  0  0  0  0  0
   -5.9780    6.1310   -2.9810 N   0  0  0  0  0  0  0  0  0  0  0  0
   -7.3090    5.6590   -2.7030 C   0  0  0  0  0  0  0  0  0  0  0  0
   -7.7920    6.0940   -1.3860 C   0  0  0  0  0  0  0  0  0  0  0  0
   -9.1690    6.7670   -1.3620 C   0  0  0  0  0  0  0  0  0  0  0  0
   -9.1160    7.7800   -2.4510 N   0  0  0  0  0  0  0  0  0  0  0  0
   -8.7980    7.4960   -3.6700 N   0  0  0  0  0  0  0  0  0  0  0  0
   -8.8790    8.6480   -4.4330 C   0  0  0  0  0  0  0  0  0  0  0  0
   -8.9250    8.5480   -5.8980 C   0  0  0  0  0  0  0  0  0  0  0  0
  -10.0420    8.4950   -6.6790 C   0  0  0  0  0  0  0  0  0  0  0  0
   -9.8520    8.8090   -8.0420 C   0  0  0  0  0  0  0  0  0  0  0  0
   -8.6500    9.1450   -8.6250 C   0  0  0  0  0  0  0  0  0  0  0  0
   -8.4980    9.5920  -10.3180 Cl  0  0  0  0  0  0  0  0  0  0  0  0
   -7.5020    9.1990   -7.8310 C   0  0  0  0  0  0  0  0  0  0  0  0
   -6.3040    9.8620   -8.1920 C   0  0  0  0  0  0  0  0  0  0  0  0
   -5.3270   10.4110   -8.5010 C   0  0  0  0  0  0  0  0  0  0  0  0
   -4.0610   11.1210   -8.8750 C   0  0  0  0  0  0  0  0  0  0  0  0
   -3.9180   12.4490   -9.0760 C   0  0  0  0  0  0  0  0  0  0  0  0
   -2.8220   13.0620   -9.4800 C   0  0  0  0  0  0  0  0  0  0  0  0
   -1.6740   12.2830   -9.7080 C   0  0  0  0  0  0  0  0  0  0  0  0
   -0.1470   12.9620  -10.1880 Cl  0  0  0  0  0  0  0  0  0  0  0  0
   -1.7070   10.8630   -9.5010 C   0  0  0  0  0  0  0  0  0  0  0  0
   -0.4440   10.1860   -9.7140 C   0  0  0  0  0  0  0  0  0  0  0  0
   -0.2840    8.9030   -8.9420 N   0  0  0  0  0  0  0  0  0  0  0  0
   -1.4470    9.0460   -8.0500 C   0  0  0  0  0  0  0  0  0  0  0  0
   -1.3820    8.6580   -6.6630 C   0  0  0  0  0  0  0  0  0  0  0  0
   -1.5600    9.5410   -5.6280 C   0  0  0  0  0  0  0  0  0  0  0  0
   -1.5850    9.1770   -4.2980 C   0  0  0  0  0  0  0  0  0  0  0  0
   -1.4190    7.8400   -3.9760 C   0  0  0  0  0  0  0  0  0  0  0  0
   -1.2260    6.9040   -4.9990 C   0  0  0  0  0  0  0  0  0  0  0  0
   -1.2140    7.3320   -6.2930 C   0  0  0  0  0  0  0  0  0  0  0  0
   -2.9050   10.3320   -9.1000 C   0  0  0  0  0  0  0  0  0  0  0  0
   -7.6910    8.8840   -6.5140 C   0  0  0  0  0  0  0  0  0  0  0  0
   -9.2370    9.6510   -3.6180 C   0  0  0  0  0  0  0  0  0  0  0  0
   -9.4170    9.1060   -2.3590 C   0  0  0  0  0  0  0  0  0  0  0  0
  -10.0590    9.8680   -1.2410 C   0  0  0  0  0  0  0  0  0  0  0  0
  -10.0590   11.3630   -1.5480 C   0  0  0  0  0  0  0  0  0  0  0  0
   -8.9020   11.5770   -2.4410 N   0  0  0  0  0  0  0  0  0  0  0  0
   -7.7400   12.0070   -1.8170 C   0  0  0  0  0  0  0  0  0  0  0  0
   -7.7940   13.0600   -1.0480 O   0  0  0  0  0  0  0  0  0  0  0  0
   -6.4090   11.4140   -1.8830 C   0  0  0  0  0  0  0  0  0  0  0  0
   -5.3210   11.9930   -1.1010 N   0  0  0  0  0  0  0  0  0  0  0  0
   -6.0940   10.4190   -2.5710 O   0  0  0  0  0  0  0  0  0  0  0  0
   -9.1610   11.1510   -3.7790 C   0  0  0  0  0  0  0  0  0  0  0  0
   -4.5455    7.6533   -1.2536 H   0  0  0  0  0  0  0  0  0  0  0  0
   -3.6339    6.9047   -2.6083 H   0  0  0  0  0  0  0  0  0  0  0  0
   -3.9518    8.6726   -2.6083 H   0  0  0  0  0  0  0  0  0  0  0  0
   -6.5773    7.9659   -2.7304 H   0  0  0  0  0  0  0  0  0  0  0  0
   -6.2574    8.0412   -5.0961 H   0  0  0  0  0  0  0  0  0  0  0  0
   -4.8533    8.9387   -4.4434 H   0  0  0  0  0  0  0  0  0  0  0  0
   -6.0576    5.9027   -5.7672 H   0  0  0  0  0  0  0  0  0  0  0  0
   -4.4403    5.1147   -5.8280 H   0  0  0  0  0  0  0  0  0  0  0  0
   -5.9904    4.3027   -4.0331 H   0  0  0  0  0  0  0  0  0  0  0  0
   -4.3609    4.8961   -3.4918 H   0  0  0  0  0  0  0  0  0  0  0  0
   -7.9900    6.0466   -3.4750 H   0  0  0  0  0  0  0  0  0  0  0  0
   -7.2829    4.5593   -2.7050 H   0  0  0  0  0  0  0  0  0  0  0  0
   -7.8394    5.2080   -0.7358 H   0  0  0  0  0  0  0  0  0  0  0  0
   -7.0811    6.8630   -1.0494 H   0  0  0  0  0  0  0  0  0  0  0  0
   -9.9634    6.0311   -1.5556 H   0  0  0  0  0  0  0  0  0  0  0  0
   -9.3931    7.2193   -0.3847 H   0  0  0  0  0  0  0  0  0  0  0  0
  -11.0278    8.2248   -6.2727 H   0  0  0  0  0  0  0  0  0  0  0  0
  -10.7381    8.7832   -8.6933 H   0  0  0  0  0  0  0  0  0  0  0  0
   -4.7991   13.0792   -8.8847 H   0  0  0  0  0  0  0  0  0  0  0  0
   -2.8067   14.1511   -9.6340 H   0  0  0  0  0  0  0  0  0  0  0  0
   -0.3546    9.9552  -10.7858 H   0  0  0  0  0  0  0  0  0  0  0  0
    0.3405   10.8675   -9.3532 H   0  0  0  0  0  0  0  0  0  0  0  0
   -0.3577    8.0729   -9.5473 H   0  0  0  0  0  0  0  0  0  0  0  0
   -1.7188   10.1118   -8.0622 H   0  0  0  0  0  0  0  0  0  0  0  0
   -2.1575    8.3173   -8.4674 H   0  0  0  0  0  0  0  0  0  0  0  0
   -1.6909   10.6051   -5.8743 H   0  0  0  0  0  0  0  0  0  0  0  0
   -1.7334    9.9311   -3.5110 H   0  0  0  0  0  0  0  0  0  0  0  0
   -1.4387    7.5163   -2.9249 H   0  0  0  0  0  0  0  0  0  0  0  0
   -1.0861    5.8390   -4.7620 H   0  0  0  0  0  0  0  0  0  0  0  0
   -1.0629    6.5855   -7.0866 H   0  0  0  0  0  0  0  0  0  0  0  0
   -2.9726    9.2450   -8.9458 H   0  0  0  0  0  0  0  0  0  0  0  0
   -6.8000    8.8917   -5.8689 H   0  0  0  0  0  0  0  0  0  0  0  0
  -11.0962    9.5235   -1.1162 H   0  0  0  0  0  0  0  0  0  0  0  0
   -9.4891    9.6934   -0.3165 H   0  0  0  0  0  0  0  0  0  0  0  0
  -10.9931   11.6531   -2.0513 H   0  0  0  0  0  0  0  0  0  0  0  0
   -9.9890   11.9697   -0.6331 H   0  0  0  0  0  0  0  0  0  0  0  0
   -4.3790   11.5786   -1.1435 H   0  0  0  0  0  0  0  0  0  0  0  0
   -5.4952   12.8160   -0.5066 H   0  0  0  0  0  0  0  0  0  0  0  0
  -10.1102   11.5620   -4.1533 H   0  0  0  0  0  0  0  0  0  0  0  0
   -8.4048   11.4827   -4.5058 H   0  0  0  0  0  0  0  0  0  0  0  0
  1  2  1  0
  2  3  1  0
  3  4  1  0
  4  5  1  0
  5  6  1  0
  6  7  1  0
  7  8  1  0
  8  9  1  0
  9 10  1  0
 10 11  1  0
 11 12  1  0
 12 13  2  0
 13 14  1  0
 14 15  2  0
 15 16  1  0
 16 17  2  0
 17 18  1  0
 17 19  1  0
 19 20  1  0
 20 21  3  0
 21 22  1  0
 22 23  2  0
 23 24  1  0
 24 25  2  0
 25 26  1  0
 25 27  1  0
 27 28  1  0
 28 29  1  0
 29 30  1  0
 30 31  1  0
 31 32  2  0
 32 33  1  0
 33 34  2  0
 34 35  1  0
 35 36  2  0
 27 37  2  0
 19 38  2  0
 13 39  1  0
 39 40  2  0
 40 41  1  0
 41 42  1  0
 42 43  1  0
 43 44  1  0
 44 45  2  0
 44 46  1  0
 46 47  1  0
 46 48  2  0
 43 49  1  0
  7  2  1  0
 40 11  1  0
 38 14  1  0
 49 39  1  0
 37 22  1  0
 36 31  1  0
  1 50  1  0
  1 51  1  0
  1 52  1  0
  2 53  1  1
  3 54  1  0
  3 55  1  0
  5 56  1  0
  5 57  1  0
  6 58  1  0
  6 59  1  0
  8 60  1  0
  8 61  1  0
  9 62  1  0
  9 63  1  0
 10 64  1  0
 10 65  1  0
 15 66  1  0
 16 67  1  0
 23 68  1  0
 24 69  1  0
 28 70  1  0
 28 71  1  0
 29 72  1  0
 30 73  1  0
 30 74  1  0
 32 75  1  0
 33 76  1  0
 34 77  1  0
 35 78  1  0
 36 79  1  0
 37 80  1  0
 38 81  1  0
 41 82  1  0
 41 83  1  0
 42 84  1  0
 42 85  1  0
 47 86  1  0
 47 87  1  0
 49 88  1  0
 49 89  1  0
M  END
$$$$
