
     RDKit          3D

 77 82  0  0  0  0  0  0  0  0999 V2000
   -0.1270   11.8540   -8.6930 C   0  0  0  0  0  0  0  0  0  0  0  0
   -1.0870   12.0460  -10.1580 S   0  0  0  0  0  6  0  0  0  0  0  0
   -1.1410   10.7180  -10.8680 O   0  0  0  0  0  0  0  0  0  0  0  0
   -0.3960   13.0620  -11.0560 O   0  0  0  0  0  0  0  0  0  0  0  0
   -2.6670   12.5840   -9.8860 N   0  0  0  0  0  0  0  0  0  0  0  0
   -3.4680   12.6450  -11.0580 C   0  0  0  0  0  0  0  0  0  0  0  0
   -4.9050   13.0520  -10.6830 C   0  0  0  0  0  0  0  0  0  0  0  0
   -5.3850   11.9040   -9.8750 C   0  0  0  0  0  0  0  0  0  0  0  0
   -4.5360   11.4250   -8.8880 C   0  0  0  0  0  0  0  0  0  0  0  0
   -5.1590   10.3500   -8.2480 C   0  0  0  0  0  0  0  0  0  0  0  0
   -4.6350    9.5660   -7.1400 C   0  0  0  0  0  0  0  0  0  0  0  0
   -3.3180    9.6050   -6.7600 C   0  0  0  0  0  0  0  0  0  0  0  0
   -2.8670    8.8520   -5.7030 C   0  0  0  0  0  0  0  0  0  0  0  0
   -3.7040    8.0320   -4.9790 C   0  0  0  0  0  0  0  0  0  0  0  0
   -3.2010    7.2230   -3.8400 C   0  0  0  0  0  0  0  0  0  0  0  0
   -3.9570    7.4860   -2.7360 F   0  0  0  0  0  0  0  0  0  0  0  0
   -3.3090    5.8940   -4.2550 F   0  0  0  0  0  0  0  0  0  0  0  0
   -1.8660    7.4960   -3.5790 F   0  0  0  0  0  0  0  0  0  0  0  0
   -5.0340    8.0000   -5.3730 C   0  0  0  0  0  0  0  0  0  0  0  0
   -5.4970    8.7490   -6.4290 C   0  0  0  0  0  0  0  0  0  0  0  0
   -6.3500   10.2240   -8.8690 N   0  0  0  0  0  0  0  0  0  0  0  0
   -6.4790   11.1380   -9.8230 N   0  0  0  0  0  0  0  0  0  0  0  0
   -7.6480   11.2760  -10.6540 C   0  0  0  0  0  0  0  0  0  0  0  0
   -8.8520   10.7190   -9.9570 C   0  0  1  0  0  0  0  0  0  0  0  0
   -8.6240    9.3230   -9.7880 O   0  0  0  0  0  0  0  0  0  0  0  0
   -8.7920   11.2690   -8.5200 C   0  0  0  0  0  0  0  0  0  0  0  0
   -9.9420   10.8950   -7.7810 N   0  0  0  0  0  4  0  0  0  0  0  0
   -9.9190    9.4520   -7.6230 C   0  0  0  0  0  0  0  0  0  0  0  0
   -9.5400    8.9960   -6.2370 C   0  0  0  0  0  0  0  0  0  0  0  0
   -8.5100    9.8190   -5.5540 C   0  0  0  0  0  0  0  0  0  0  0  0
   -8.4660    9.4770   -4.1190 C   0  0  0  0  0  0  0  0  0  0  0  0
   -8.7620   10.3220   -3.0850 C   0  0  0  0  0  0  0  0  0  0  0  0
   -8.6080    9.6670   -1.8970 N   0  0  0  0  0  0  0  0  0  0  0  0
   -8.2210    8.4330   -2.1980 C   0  0  0  0  0  0  0  0  0  0  0  0
   -7.9260    7.3660   -1.3920 C   0  0  0  0  0  0  0  0  0  0  0  0
   -7.5420    6.1840   -2.0190 C   0  0  0  0  0  0  0  0  0  0  0  0
   -7.4530    6.0540   -3.3420 N   0  0  0  0  0  4  0  0  0  0  0  0
   -7.0640    4.8540   -3.9240 O   0  0  0  0  0  1  0  0  0  0  0  0
   -7.7390    7.0960   -4.1490 C   0  0  0  0  0  0  0  0  0  0  0  0
   -8.1180    8.2660   -3.5610 C   0  0  0  0  0  0  0  0  0  0  0  0
   -8.8130   11.3090   -5.6220 C   0  0  0  0  0  0  0  0  0  0  0  0
  -10.0590   11.4540   -6.4640 C   0  0  0  0  0  0  0  0  0  0  0  0
   -3.2460   12.0990   -8.6970 C   0  0  0  0  0  0  0  0  0  0  0  0
   -0.7728   11.9832   -7.8119 H   0  0  0  0  0  0  0  0  0  0  0  0
    0.3194   10.8488   -8.6763 H   0  0  0  0  0  0  0  0  0  0  0  0
    0.6717   12.6102   -8.6763 H   0  0  0  0  0  0  0  0  0  0  0  0
   -3.0464   13.3880  -11.7509 H   0  0  0  0  0  0  0  0  0  0  0  0
   -3.4832   11.6569  -11.5411 H   0  0  0  0  0  0  0  0  0  0  0  0
   -4.9103   13.9796  -10.0918 H   0  0  0  0  0  0  0  0  0  0  0  0
   -5.5374   13.2557  -11.5597 H   0  0  0  0  0  0  0  0  0  0  0  0
   -2.6135   10.2475   -7.3085 H   0  0  0  0  0  0  0  0  0  0  0  0
   -1.8038    8.9057   -5.4262 H   0  0  0  0  0  0  0  0  0  0  0  0
   -5.7382    7.3569   -4.8248 H   0  0  0  0  0  0  0  0  0  0  0  0
   -6.5592    8.6987   -6.7106 H   0  0  0  0  0  0  0  0  0  0  0  0
   -7.8151   12.3414  -10.8708 H   0  0  0  0  0  0  0  0  0  0  0  0
   -7.4884   10.7207  -11.5901 H   0  0  0  0  0  0  0  0  0  0  0  0
   -9.7799   10.9514  -10.5001 H   0  0  0  0  0  0  0  0  0  0  0  0
   -8.5890    9.1089   -8.8221 H   0  0  0  0  0  0  0  0  0  0  0  0
   -7.8978   10.8690   -8.0195 H   0  0  0  0  0  0  0  0  0  0  0  0
   -8.7501   12.3671   -8.5682 H   0  0  0  0  0  0  0  0  0  0  0  0
  -10.7398   11.2594   -8.3210 H   0  0  0  0  0  0  0  0  0  0  0  0
  -10.9213    9.0621   -7.8541 H   0  0  0  0  0  0  0  0  0  0  0  0
   -9.1486    9.0677   -8.3077 H   0  0  0  0  0  0  0  0  0  0  0  0
  -10.4482    9.0059   -5.6165 H   0  0  0  0  0  0  0  0  0  0  0  0
   -9.0973    7.9963   -6.3579 H   0  0  0  0  0  0  0  0  0  0  0  0
   -7.5611    9.6068   -6.0683 H   0  0  0  0  0  0  0  0  0  0  0  0
   -9.0765   11.3704   -3.1940 H   0  0  0  0  0  0  0  0  0  0  0  0
   -8.7615   10.0533   -0.9546 H   0  0  0  0  0  0  0  0  0  0  0  0
   -7.9897    7.4397   -0.2963 H   0  0  0  0  0  0  0  0  0  0  0  0
   -7.3000    5.3140   -1.3909 H   0  0  0  0  0  0  0  0  0  0  0  0
   -7.6689    7.0050   -5.2430 H   0  0  0  0  0  0  0  0  0  0  0  0
   -8.9881   11.7079   -4.6119 H   0  0  0  0  0  0  0  0  0  0  0  0
   -7.9710   11.8673   -6.0571 H   0  0  0  0  0  0  0  0  0  0  0  0
  -10.8873   10.9484   -5.9460 H   0  0  0  0  0  0  0  0  0  0  0  0
  -10.2339   12.5326   -6.5905 H   0  0  0  0  0  0  0  0  0  0  0  0
   -3.3983   12.9490   -8.0156 H   0  0  0  0  0  0  0  0  0  0  0  0
   -2.5531   11.3470   -8.2915 H   0  0  0  0  0  0  0  0  0  0  0  0
  1  2  1  0
  2  3  2  0
  2  4  2  0
  2  5  1  0
  5  6  1  0
  6  7  1  0
  7  8  1  0
  8  9  2  0
  9 10  1  0
 10 11  1  0
 11 12  2  0
 12 13  1  0
 13 14  2  0
 14 15  1  0
 15 16  1  0
 15 17  1  0
 15 18  1  0
 14 19  1  0
 19 20  2  0
 10 21  2  0
 21 22  1  0
 22 23  1  0
 23 24  1  0
 24 25  1  0
 24 26  1  0
 26 27  1  0
 27 28  1  0
 28 29  1  0
 29 30  1  0
 30 31  1  0
 31 32  2  0
 32 33  1  0
 33 34  1  0
 34 35  2  0
 35 36  1  0
 36 37  2  0
 37 38  1  0
 37 39  1  0
 39 40  2  0
 30 41  1  0
 41 42  1  0
  9 43  1  0
 43  5  1  0
 22  8  1  0
 42 27  1  0
 20 11  1  0
 40 31  1  0
 40 34  1  0
  1 44  1  0
  1 45  1  0
  1 46  1  0
  6 47  1  0
  6 48  1  0
  7 49  1  0
  7 50  1  0
 12 51  1  0
 13 52  1  0
 19 53  1  0
 20 54  1  0
 23 55  1  0
 23 56  1  0
 24 57  1  6
 25 58  1  0
 26 59  1  0
 26 60  1  0
 27 61  1  0
 28 62  1  0
 28 63  1  0
 29 64  1  0
 29 65  1  0
 30 66  1  0
 32 67  1  0
 33 68  1  0
 35 69  1  0
 36 70  1  0
 39 71  1  0
 41 72  1  0
 41 73  1  0
 42 74  1  0
 42 75  1  0
 43 76  1  0
 43 77  1  0
M  CHG  3  27   1  37   1  38  -1
M  END
$$$$
