
     RDKit          3D

 86 91  0  0  0  0  0  0  0  0999 V2000
   -8.7470   10.7730   -8.8240 C   0  0  0  0  0  0  0  0  0  0  0  0
   -8.5680   10.6260   -7.0710 S   0  0  0  0  0  6  0  0  0  0  0  0
   -9.5650   11.5630   -6.4140 O   0  0  0  0  0  0  0  0  0  0  0  0
   -7.1840   11.1200   -6.6810 O   0  0  0  0  0  0  0  0  0  0  0  0
   -8.6980    9.0360   -6.4850 N   0  0  0  0  0  0  0  0  0  0  0  0
   -9.9450    8.6100   -5.9910 C   0  0  0  0  0  0  0  0  0  0  0  0
  -10.0620    8.7860   -4.4680 C   0  0  0  0  0  0  0  0  0  0  0  0
   -8.9720    7.9600   -3.8750 C   0  0  0  0  0  0  0  0  0  0  0  0
   -7.7900    7.8480   -4.5710 C   0  0  0  0  0  0  0  0  0  0  0  0
   -6.9150    6.9880   -3.8500 C   0  0  0  0  0  0  0  0  0  0  0  0
   -5.5610    6.7090   -4.2550 C   0  0  0  0  0  0  0  0  0  0  0  0
   -5.0580    5.4270   -4.2420 C   0  0  0  0  0  0  0  0  0  0  0  0
   -3.7940    5.1550   -4.7100 C   0  0  0  0  0  0  0  0  0  0  0  0
   -2.9730    6.1370   -5.2080 C   0  0  0  0  0  0  0  0  0  0  0  0
   -1.3840    5.7880   -5.8260 Cl  0  0  0  0  0  0  0  0  0  0  0  0
   -3.4340    7.4340   -5.2360 C   0  0  0  0  0  0  0  0  0  0  0  0
   -2.6910    8.5270   -5.7090 C   0  0  0  0  0  0  0  0  0  0  0  0
   -2.0150    9.5310   -6.1490 C   0  0  0  0  0  0  0  0  0  0  0  0
   -1.2920   10.6270   -6.6300 C   0  0  0  0  0  0  0  0  0  0  0  0
   -0.9830   11.7820   -5.8930 C   0  0  0  0  0  0  0  0  0  0  0  0
   -0.4400   12.9330   -6.3400 C   0  0  0  0  0  0  0  0  0  0  0  0
   -0.1620   12.9520   -7.7460 C   0  0  0  0  0  0  0  0  0  0  0  0
   -0.4380   11.8590   -8.5180 C   0  0  0  0  0  0  0  0  0  0  0  0
   -0.1820   11.9260  -10.0090 C   0  0  0  0  0  0  0  0  0  0  0  0
   -0.9640   13.0280  -10.4830 N   0  0  0  0  0  0  0  0  0  0  0  0
   -2.2300   12.6940  -11.0500 C   0  0  0  0  0  0  0  0  0  0  0  0
   -3.2610   12.4430   -9.9840 C   0  0  0  0  0  0  0  0  0  0  0  0
   -4.2670   11.5070  -10.2970 C   0  0  0  0  0  0  0  0  0  0  0  0
   -5.2110   11.2470   -9.3470 C   0  0  0  0  0  0  0  0  0  0  0  0
   -5.2080   11.8570   -8.1300 C   0  0  0  0  0  0  0  0  0  0  0  0
   -4.1980   12.7910   -7.8240 C   0  0  0  0  0  0  0  0  0  0  0  0
   -3.2370   13.0620   -8.7810 C   0  0  0  0  0  0  0  0  0  0  0  0
   -0.9810   10.7250   -8.0040 C   0  0  0  0  0  0  0  0  0  0  0  0
   -4.7390    7.6700   -4.7480 C   0  0  0  0  0  0  0  0  0  0  0  0
   -7.6170    6.6440   -2.7790 N   0  0  0  0  0  0  0  0  0  0  0  0
   -8.8430    7.2180   -2.7830 N   0  0  0  0  0  0  0  0  0  0  0  0
   -9.7900    7.0540   -1.6920 C   0  0  0  0  0  0  0  0  0  0  0  0
  -10.0370    8.3120   -0.9380 C   0  0  0  0  0  0  0  0  0  0  0  0
   -9.0590    9.3860   -1.0780 C   0  0  0  0  0  0  0  0  0  0  0  0
   -9.2680   10.5500   -1.8660 N   0  0  0  0  0  0  0  0  0  0  0  0
   -9.8180   11.6700   -1.0710 C   0  0  0  0  0  0  0  0  0  0  0  0
   -9.3060   13.0040   -1.5490 C   0  0  0  0  0  0  0  0  0  0  0  0
   -8.9560   13.0260   -2.9050 O   0  0  0  0  0  0  0  0  0  0  0  0
   -7.9240   12.1120   -3.1840 C   0  0  0  0  0  0  0  0  0  0  0  0
   -7.8790   11.0000   -2.2270 C   0  0  0  0  0  0  0  0  0  0  0  0
   -7.5350    8.5450   -5.8360 C   0  0  0  0  0  0  0  0  0  0  0  0
   -9.5787   11.4560   -9.0517 H   0  0  0  0  0  0  0  0  0  0  0  0
   -7.8168   11.1713   -9.2554 H   0  0  0  0  0  0  0  0  0  0  0  0
   -8.9568    9.7831   -9.2554 H   0  0  0  0  0  0  0  0  0  0  0  0
  -10.7373    9.1984   -6.4767 H   0  0  0  0  0  0  0  0  0  0  0  0
  -10.0460    7.5376   -6.2139 H   0  0  0  0  0  0  0  0  0  0  0  0
   -9.9325    9.8435   -4.1942 H   0  0  0  0  0  0  0  0  0  0  0  0
  -11.0505    8.4731   -4.1006 H   0  0  0  0  0  0  0  0  0  0  0  0
   -5.6778    4.6069   -3.8506 H   0  0  0  0  0  0  0  0  0  0  0  0
   -3.4287    4.1177   -4.6847 H   0  0  0  0  0  0  0  0  0  0  0  0
   -1.2123   11.7431   -4.8179 H   0  0  0  0  0  0  0  0  0  0  0  0
   -0.2280   13.7869   -5.6798 H   0  0  0  0  0  0  0  0  0  0  0  0
    0.2755   13.8506   -8.2055 H   0  0  0  0  0  0  0  0  0  0  0  0
    0.8859   12.0988  -10.2082 H   0  0  0  0  0  0  0  0  0  0  0  0
   -0.4543   10.9865  -10.5121 H   0  0  0  0  0  0  0  0  0  0  0  0
   -1.1311   13.6616   -9.6883 H   0  0  0  0  0  0  0  0  0  0  0  0
   -2.5679   13.5258  -11.6856 H   0  0  0  0  0  0  0  0  0  0  0  0
   -2.1122   11.7735  -11.6406 H   0  0  0  0  0  0  0  0  0  0  0  0
   -4.2903   11.0030  -11.2745 H   0  0  0  0  0  0  0  0  0  0  0  0
   -6.0033   10.5180   -9.5726 H   0  0  0  0  0  0  0  0  0  0  0  0
   -5.9882   11.6226   -7.3909 H   0  0  0  0  0  0  0  0  0  0  0  0
   -4.1745   13.2933   -6.8457 H   0  0  0  0  0  0  0  0  0  0  0  0
   -2.4426   13.7904   -8.5613 H   0  0  0  0  0  0  0  0  0  0  0  0
   -1.1813    9.8708   -8.6675 H   0  0  0  0  0  0  0  0  0  0  0  0
   -5.1145    8.7037   -4.7691 H   0  0  0  0  0  0  0  0  0  0  0  0
  -10.7456    6.7022   -2.1081 H   0  0  0  0  0  0  0  0  0  0  0  0
   -9.3553    6.3299   -0.9872 H   0  0  0  0  0  0  0  0  0  0  0  0
  -11.0094    8.7073   -1.2668 H   0  0  0  0  0  0  0  0  0  0  0  0
   -9.9809    8.0190    0.1208 H   0  0  0  0  0  0  0  0  0  0  0  0
   -8.8638    9.7472   -0.0575 H   0  0  0  0  0  0  0  0  0  0  0  0
   -8.2716    8.8796   -1.6555 H   0  0  0  0  0  0  0  0  0  0  0  0
  -10.9148   11.6598   -1.1539 H   0  0  0  0  0  0  0  0  0  0  0  0
   -9.4975   11.5364   -0.0272 H   0  0  0  0  0  0  0  0  0  0  0  0
  -10.0911   13.7561   -1.3819 H   0  0  0  0  0  0  0  0  0  0  0  0
   -8.3890   13.2161   -0.9796 H   0  0  0  0  0  0  0  0  0  0  0  0
   -8.0799   11.7022   -4.1928 H   0  0  0  0  0  0  0  0  0  0  0  0
   -6.9700   12.6544   -3.1086 H   0  0  0  0  0  0  0  0  0  0  0  0
   -7.3328   10.1582   -2.6776 H   0  0  0  0  0  0  0  0  0  0  0  0
   -7.3701   11.3412   -1.3134 H   0  0  0  0  0  0  0  0  0  0  0  0
   -6.8711    9.3976   -5.6302 H   0  0  0  0  0  0  0  0  0  0  0  0
   -7.0880    7.8043   -6.5154 H   0  0  0  0  0  0  0  0  0  0  0  0
  1  2  1  0
  2  3  2  0
  2  4  2  0
  2  5  1  0
  5  6  1  0
  6  7  1  0
  7  8  1  0
  8  9  2  0
  9 10  1  0
 10 11  1  0
 11 12  2  0
 12 13  1  0
 13 14  2  0
 14 15  1  0
 14 16  1  0
 16 17  1  0
 17 18  3  0
 18 19  1  0
 19 20  2  0
 20 21  1  0
 21 22  2  0
 22 23  1  0
 23 24  1  0
 24 25  1  0
 25 26  1  0
 26 27  1  0
 27 28  2  0
 28 29  1  0
 29 30  2  0
 30 31  1  0
 31 32  2  0
 23 33  2  0
 16 34  2  0
 10 35  2  0
 35 36  1  0
 36 37  1  0
 37 38  1  0
 38 39  1  0
 39 40  1  0
 40 41  1  0
 41 42  1  0
 42 43  1  0
 43 44  1  0
 44 45  1  0
  9 46  1  0
 46  5  1  0
 36  8  1  0
 45 40  1  0
 34 11  1  0
 33 19  1  0
 32 27  1  0
  1 47  1  0
  1 48  1  0
  1 49  1  0
  6 50  1  0
  6 51  1  0
  7 52  1  0
  7 53  1  0
 12 54  1  0
 13 55  1  0
 20 56  1  0
 21 57  1  0
 22 58  1  0
 24 59  1  0
 24 60  1  0
 25 61  1  0
 26 62  1  0
 26 63  1  0
 28 64  1  0
 29 65  1  0
 30 66  1  0
 31 67  1  0
 32 68  1  0
 33 69  1  0
 34 70  1  0
 37 71  1  0
 37 72  1  0
 38 73  1  0
 38 74  1  0
 39 75  1  0
 39 76  1  0
 41 77  1  0
 41 78  1  0
 42 79  1  0
 42 80  1  0
 44 81  1  0
 44 82  1  0
 45 83  1  0
 45 84  1  0
 46 85  1  0
 46 86  1  0
M  END
$$$$
