
     RDKit          3D

 94100  0  0  0  0  0  0  0  0999 V2000
   -2.2020   10.4050   -4.4090 C   0  0  0  0  0  0  0  0  0  0  0  0
   -1.7980   12.0760   -4.8340 S   0  0  0  0  0  6  0  0  0  0  0  0
   -2.9960   12.7310   -5.4910 O   0  0  0  0  0  0  0  0  0  0  0  0
   -1.4150   12.8510   -3.5780 O   0  0  0  0  0  0  0  0  0  0  0  0
   -0.4860   12.2050   -5.9090 N   0  0  0  0  0  0  0  0  0  0  0  0
   -0.7930   13.0620   -7.0020 C   0  0  0  0  0  0  0  0  0  0  0  0
    0.0600   12.7450   -8.2350 C   0  0  0  0  0  0  0  0  0  0  0  0
   -0.3430   11.3640   -8.6150 C   0  0  0  0  0  0  0  0  0  0  0  0
   -0.3570   10.4290   -7.5770 C   0  0  0  0  0  0  0  0  0  0  0  0
   -0.7870    9.2320   -8.0830 C   0  0  0  0  0  0  0  0  0  0  0  0
   -1.0490    7.9750   -7.4030 C   0  0  0  0  0  0  0  0  0  0  0  0
   -0.1230    6.9390   -7.5120 C   0  0  0  0  0  0  0  0  0  0  0  0
   -0.2450    5.7330   -6.8640 C   0  0  0  0  0  0  0  0  0  0  0  0
   -1.3570    5.5670   -6.0660 C   0  0  0  0  0  0  0  0  0  0  0  0
   -1.6130    4.0790   -5.2030 Cl  0  0  0  0  0  0  0  0  0  0  0  0
   -2.3320    6.5810   -5.9140 C   0  0  0  0  0  0  0  0  0  0  0  0
   -3.4320    6.3450   -5.0400 C   0  0  0  0  0  0  0  0  0  0  0  0
   -4.3860    6.1550   -4.2800 C   0  0  0  0  0  0  0  0  0  0  0  0
   -5.5080    5.9510   -3.4090 C   0  0  0  0  0  0  0  0  0  0  0  0
   -5.4790    6.1070   -2.0420 C   0  0  0  0  0  0  0  0  0  0  0  0
   -6.5790    5.8930   -1.2410 C   0  0  0  0  0  0  0  0  0  0  0  0
   -7.7830    5.5090   -1.7870 C   0  0  0  0  0  0  0  0  0  0  0  0
   -8.9870    5.2800   -0.9380 C   0  0  0  0  0  0  0  0  0  0  0  0
   -9.9510    6.3550   -1.0770 N   0  0  0  0  0  0  0  0  0  0  0  0
   -9.7800    7.0330   -2.3570 C   0  0  0  0  0  0  0  0  0  0  0  0
   -9.2180    8.4060   -2.1990 C   0  0  0  0  0  0  0  0  0  0  0  0
   -9.6290    9.1940   -1.1490 C   0  0  0  0  0  0  0  0  0  0  0  0
   -9.1250   10.4740   -0.9750 C   0  0  0  0  0  0  0  0  0  0  0  0
   -8.2020   10.9710   -1.8630 C   0  0  0  0  0  0  0  0  0  0  0  0
   -7.5440   12.5970   -1.6650 Cl  0  0  0  0  0  0  0  0  0  0  0  0
   -7.7970   10.1660   -2.9150 C   0  0  0  0  0  0  0  0  0  0  0  0
   -8.2980    8.9020   -3.0820 C   0  0  0  0  0  0  0  0  0  0  0  0
   -7.8590    5.3420   -3.1500 C   0  0  0  0  0  0  0  0  0  0  0  0
   -6.7430    5.5600   -3.9250 C   0  0  0  0  0  0  0  0  0  0  0  0
   -2.1440    7.7420   -6.5850 C   0  0  0  0  0  0  0  0  0  0  0  0
   -1.0210    9.4580   -9.4100 N   0  0  0  0  0  0  0  0  0  0  0  0
   -0.7540   10.7320   -9.7180 N   0  0  0  0  0  0  0  0  0  0  0  0
   -0.9070   11.2780  -11.0620 C   0  0  0  0  0  0  0  0  0  0  0  0
   -1.3440   12.7370  -11.0420 C   0  0  0  0  0  0  0  0  0  0  0  0
   -2.5310   12.8260  -10.1310 C   0  0  0  0  0  0  0  0  0  0  0  0
   -3.4570   11.7420  -10.1960 N   0  0  0  0  0  0  0  0  0  0  0  0
   -4.5400   12.1460  -11.0550 C   0  0  0  0  0  0  0  0  0  0  0  0
   -5.8780   11.8650  -10.3880 C   0  0  0  0  0  0  0  0  0  0  0  0
   -5.8800   12.4660   -9.0940 N   0  0  0  0  0  0  0  0  0  0  0  0
   -7.1560   12.3700   -8.4150 C   0  0  0  0  0  0  0  0  0  0  0  0
   -7.2540   12.6460   -6.9600 C   0  0  0  0  0  0  0  0  0  0  0  0
   -7.4050   11.2430   -7.5100 C   0  0  0  0  0  0  0  0  0  0  0  0
   -4.7730   12.1450   -8.2450 C   0  0  0  0  0  0  0  0  0  0  0  0
   -3.8490   11.1700   -8.9510 C   0  0  0  0  0  0  0  0  0  0  0  0
    0.0580   10.9260   -6.2360 C   0  0  0  0  0  0  0  0  0  0  0  0
   -2.2272   10.3009   -3.3142 H   0  0  0  0  0  0  0  0  0  0  0  0
   -3.1879   10.1491   -4.8244 H   0  0  0  0  0  0  0  0  0  0  0  0
   -1.4419    9.7270   -4.8244 H   0  0  0  0  0  0  0  0  0  0  0  0
   -1.8545   12.9389   -7.2629 H   0  0  0  0  0  0  0  0  0  0  0  0
   -0.5769   14.0960   -6.6951 H   0  0  0  0  0  0  0  0  0  0  0  0
   -0.1550   13.4519   -9.0499 H   0  0  0  0  0  0  0  0  0  0  0  0
    1.1381   12.8279   -8.0331 H   0  0  0  0  0  0  0  0  0  0  0  0
    0.7565    7.0956   -8.1539 H   0  0  0  0  0  0  0  0  0  0  0  0
    0.5079    4.9390   -6.9766 H   0  0  0  0  0  0  0  0  0  0  0  0
   -4.5357    6.4162   -1.5681 H   0  0  0  0  0  0  0  0  0  0  0  0
   -6.4944    6.0305   -0.1529 H   0  0  0  0  0  0  0  0  0  0  0  0
   -9.4612    4.3342   -1.2389 H   0  0  0  0  0  0  0  0  0  0  0  0
   -8.6644    5.2410    0.1129 H   0  0  0  0  0  0  0  0  0  0  0  0
  -10.9030    5.9653   -1.0245 H   0  0  0  0  0  0  0  0  0  0  0  0
   -9.0962    6.4406   -2.9827 H   0  0  0  0  0  0  0  0  0  0  0  0
  -10.7717    7.1266   -2.8237 H   0  0  0  0  0  0  0  0  0  0  0  0
  -10.3694    8.8024   -0.4359 H   0  0  0  0  0  0  0  0  0  0  0  0
   -9.4632   11.0897   -0.1285 H   0  0  0  0  0  0  0  0  0  0  0  0
   -7.0567   10.5502   -3.6322 H   0  0  0  0  0  0  0  0  0  0  0  0
   -7.9601    8.2847   -3.9274 H   0  0  0  0  0  0  0  0  0  0  0  0
   -8.8063    5.0360   -3.6179 H   0  0  0  0  0  0  0  0  0  0  0  0
   -6.8300    5.4179   -5.0123 H   0  0  0  0  0  0  0  0  0  0  0  0
   -2.8955    8.5379   -6.4760 H   0  0  0  0  0  0  0  0  0  0  0  0
    0.0569   11.2037  -11.5868 H   0  0  0  0  0  0  0  0  0  0  0  0
   -1.6874   10.6979  -11.5762 H   0  0  0  0  0  0  0  0  0  0  0  0
   -0.5285   13.3705  -10.6630 H   0  0  0  0  0  0  0  0  0  0  0  0
   -1.5987   13.0846  -12.0541 H   0  0  0  0  0  0  0  0  0  0  0  0
   -2.1577   12.8872   -9.0981 H   0  0  0  0  0  0  0  0  0  0  0  0
   -3.0913   13.7125  -10.4628 H   0  0  0  0  0  0  0  0  0  0  0  0
   -4.4568   13.2233  -11.2611 H   0  0  0  0  0  0  0  0  0  0  0  0
   -4.4825   11.5763  -11.9942 H   0  0  0  0  0  0  0  0  0  0  0  0
   -6.6907   12.2907  -10.9949 H   0  0  0  0  0  0  0  0  0  0  0  0
   -6.0304   10.7794  -10.2969 H   0  0  0  0  0  0  0  0  0  0  0  0
   -7.6633   12.7759   -9.3026 H   0  0  0  0  0  0  0  0  0  0  0  0
   -6.3568   12.9228   -6.3870 H   0  0  0  0  0  0  0  0  0  0  0  0
   -7.8579   13.3107   -6.3248 H   0  0  0  0  0  0  0  0  0  0  0  0
   -6.6187   10.4944   -7.3331 H   0  0  0  0  0  0  0  0  0  0  0  0
   -8.1694   10.4553   -7.4377 H   0  0  0  0  0  0  0  0  0  0  0  0
   -4.2188   13.0642   -8.0044 H   0  0  0  0  0  0  0  0  0  0  0  0
   -5.1474   11.6845   -7.3188 H   0  0  0  0  0  0  0  0  0  0  0  0
   -2.9596   10.9856   -8.3306 H   0  0  0  0  0  0  0  0  0  0  0  0
   -4.3667   10.2144   -9.1207 H   0  0  0  0  0  0  0  0  0  0  0  0
   -0.2751   10.2019   -5.4779 H   0  0  0  0  0  0  0  0  0  0  0  0
    1.1524   11.0355   -6.2561 H   0  0  0  0  0  0  0  0  0  0  0  0
  1  2  1  0
  2  3  2  0
  2  4  2  0
  2  5  1  0
  5  6  1  0
  6  7  1  0
  7  8  1  0
  8  9  2  0
  9 10  1  0
 10 11  1  0
 11 12  2  0
 12 13  1  0
 13 14  2  0
 14 15  1  0
 14 16  1  0
 16 17  1  0
 17 18  3  0
 18 19  1  0
 19 20  2  0
 20 21  1  0
 21 22  2  0
 22 23  1  0
 23 24  1  0
 24 25  1  0
 25 26  1  0
 26 27  2  0
 27 28  1  0
 28 29  2  0
 29 30  1  0
 29 31  1  0
 31 32  2  0
 22 33  1  0
 33 34  2  0
 16 35  2  0
 10 36  2  0
 36 37  1  0
 37 38  1  0
 38 39  1  0
 39 40  1  0
 40 41  1  0
 41 42  1  0
 42 43  1  0
 43 44  1  0
 44 45  1  0
 45 46  1  0
 46 47  1  0
 44 48  1  0
 48 49  1  0
  9 50  1  0
 50  5  1  0
 37  8  1  0
 49 41  1  0
 35 11  1  0
 47 45  1  0
 34 19  1  0
 32 26  1  0
  1 51  1  0
  1 52  1  0
  1 53  1  0
  6 54  1  0
  6 55  1  0
  7 56  1  0
  7 57  1  0
 12 58  1  0
 13 59  1  0
 20 60  1  0
 21 61  1  0
 23 62  1  0
 23 63  1  0
 24 64  1  0
 25 65  1  0
 25 66  1  0
 27 67  1  0
 28 68  1  0
 31 69  1  0
 32 70  1  0
 33 71  1  0
 34 72  1  0
 35 73  1  0
 38 74  1  0
 38 75  1  0
 39 76  1  0
 39 77  1  0
 40 78  1  0
 40 79  1  0
 42 80  1  0
 42 81  1  0
 43 82  1  0
 43 83  1  0
 45 84  1  0
 46 85  1  0
 46 86  1  0
 47 87  1  0
 47 88  1  0
 48 89  1  0
 48 90  1  0
 49 91  1  0
 49 92  1  0
 50 93  1  0
 50 94  1  0
M  END
$$$$
