
     RDKit          3D

101106  0  0  0  0  0  0  0  0999 V2000
   -9.0590   10.3280  -11.0550 C   0  0  0  0  0  0  0  0  0  0  0  0
   -9.4310    8.8960  -10.8640 C   0  0  0  0  0  0  0  0  0  0  0  0
   -9.6450    8.4960   -9.4440 C   0  0  0  0  0  0  0  0  0  0  0  0
   -8.6930    9.0440   -8.5080 N   0  0  0  0  0  0  0  0  0  0  0  0
   -7.5050    8.4760   -8.2630 N   0  0  0  0  0  0  0  0  0  0  0  0
   -6.8250    9.1870   -7.3370 C   0  0  0  0  0  0  0  0  0  0  0  0
   -5.4960    8.8750   -6.8230 C   0  0  0  0  0  0  0  0  0  0  0  0
   -5.2660    7.7770   -6.0140 C   0  0  0  0  0  0  0  0  0  0  0  0
   -4.0130    7.4750   -5.5280 C   0  0  0  0  0  0  0  0  0  0  0  0
   -2.9210    8.2820   -5.8420 C   0  0  0  0  0  0  0  0  0  0  0  0
   -1.5710    7.9590   -5.3100 C   0  0  0  0  0  0  0  0  0  0  0  0
   -1.1570    8.8980   -4.4270 F   0  0  0  0  0  0  0  0  0  0  0  0
   -1.7320    6.7650   -4.5910 F   0  0  0  0  0  0  0  0  0  0  0  0
   -0.6800    7.6900   -6.3140 F   0  0  0  0  0  0  0  0  0  0  0  0
   -3.1520    9.3770   -6.6490 C   0  0  0  0  0  0  0  0  0  0  0  0
   -1.7110   10.4030   -6.9830 S   0  0  0  0  0  0  0  0  0  0  0  0
   -1.5700   10.6030   -8.7650 C   0  0  0  0  0  0  0  0  0  0  0  0
   -1.4900   12.0390   -9.1520 C   0  0  0  0  0  0  0  0  0  0  0  0
   -2.6280   12.7230   -9.5320 N   0  0  0  0  0  0  0  0  0  0  0  0
   -3.1550   12.7550  -10.8220 C   0  0  0  0  0  0  0  0  0  0  0  0
   -4.6840   12.8520  -10.8460 C   0  0  0  0  0  0  0  0  0  0  0  0
   -5.2970   11.8990   -9.8480 C   0  0  0  0  0  0  0  0  0  0  0  0
   -4.7410   12.1200   -8.4560 C   0  0  0  0  0  0  0  0  0  0  0  0
   -3.5540   13.0620   -8.4740 C   0  0  0  0  0  0  0  0  0  0  0  0
   -4.4090    9.6720   -7.1300 C   0  0  0  0  0  0  0  0  0  0  0  0
   -7.6480   10.2370   -7.0110 C   0  0  0  0  0  0  0  0  0  0  0  0
   -8.8350   10.1320   -7.7660 C   0  0  0  0  0  0  0  0  0  0  0  0
   -9.8500   11.1780   -7.5680 C   0  0  0  0  0  0  0  0  0  0  0  0
  -10.0600   11.2460   -6.0330 C   0  0  0  0  0  0  0  0  0  0  0  0
   -8.8540   11.6020   -5.3600 N   0  0  0  0  0  0  0  0  0  0  0  0
   -8.6570   12.1120   -4.0740 C   0  0  0  0  0  0  0  0  0  0  0  0
   -7.5090   12.7790   -3.9120 O   0  0  0  0  0  0  0  0  0  0  0  0
   -9.4760   12.0400   -2.8950 C   0  0  0  0  0  0  0  0  0  0  0  0
   -9.8300   10.7150   -2.3640 C   0  0  0  0  0  0  0  0  0  0  0  0
   -8.7490   10.0470   -1.5410 C   0  0  0  0  0  0  0  0  0  0  0  0
   -7.9120    9.1130   -2.3660 C   0  0  0  0  0  0  0  0  0  0  0  0
   -8.6830    7.9560   -2.8610 N   0  0  0  0  0  0  0  0  0  0  0  0
   -8.6450    6.9930   -1.7980 C   0  0  0  0  0  0  0  0  0  0  0  0
   -7.6820    5.8960   -2.0380 C   0  0  0  0  0  0  0  0  0  0  0  0
   -6.5380    5.9020   -1.0260 C   0  0  0  0  0  0  0  0  0  0  0  0
   -5.3360    6.6660   -1.5530 C   0  0  0  0  0  0  0  0  0  0  0  0
   -4.8900    6.1490   -2.8930 C   0  0  0  0  0  0  0  0  0  0  0  0
   -5.8310    5.1380   -3.4710 C   0  0  0  0  0  0  0  0  0  0  0  0
   -7.2870    5.6150   -3.4220 C   0  0  0  0  0  0  0  0  0  0  0  0
  -10.0620    8.3910   -3.0780 C   0  0  0  0  0  0  0  0  0  0  0  0
  -10.0120    9.8080   -3.6490 C   0  0  0  0  0  0  0  0  0  0  0  0
   -7.5830   11.3930   -6.1240 C   0  0  0  0  0  0  0  0  0  0  0  0
   -8.9342   10.8085  -10.0734 H   0  0  0  0  0  0  0  0  0  0  0  0
   -8.1150   10.3899  -11.6162 H   0  0  0  0  0  0  0  0  0  0  0  0
   -9.8536   10.8415  -11.6162 H   0  0  0  0  0  0  0  0  0  0  0  0
  -10.3620    8.7062  -11.4182 H   0  0  0  0  0  0  0  0  0  0  0  0
   -8.5820    8.3010  -11.2316 H   0  0  0  0  0  0  0  0  0  0  0  0
  -10.6497    8.8279   -9.1433 H   0  0  0  0  0  0  0  0  0  0  0  0
   -9.5184    7.4039   -9.4088 H   0  0  0  0  0  0  0  0  0  0  0  0
   -6.1109    7.1239   -5.7502 H   0  0  0  0  0  0  0  0  0  0  0  0
   -3.8734    6.5913   -4.8880 H   0  0  0  0  0  0  0  0  0  0  0  0
   -0.6610   10.0891   -9.1109 H   0  0  0  0  0  0  0  0  0  0  0  0
   -2.4677   10.1710   -9.2313 H   0  0  0  0  0  0  0  0  0  0  0  0
   -1.0720   12.5763   -8.2880 H   0  0  0  0  0  0  0  0  0  0  0  0
   -0.8931   12.0155  -10.0756 H   0  0  0  0  0  0  0  0  0  0  0  0
   -2.7408   13.6281  -11.3475 H   0  0  0  0  0  0  0  0  0  0  0  0
   -2.8792   11.8095  -11.3118 H   0  0  0  0  0  0  0  0  0  0  0  0
   -4.9842   13.8799  -10.5946 H   0  0  0  0  0  0  0  0  0  0  0  0
   -5.0387   12.5851  -11.8525 H   0  0  0  0  0  0  0  0  0  0  0  0
   -6.3857   12.0548   -9.8270 H   0  0  0  0  0  0  0  0  0  0  0  0
   -5.0546   10.8717  -10.1576 H   0  0  0  0  0  0  0  0  0  0  0  0
   -5.5291   12.5505   -7.8207 H   0  0  0  0  0  0  0  0  0  0  0  0
   -4.4052   11.1499   -8.0610 H   0  0  0  0  0  0  0  0  0  0  0  0
   -3.9147   14.0895   -8.6295 H   0  0  0  0  0  0  0  0  0  0  0  0
   -3.0279   12.9747   -7.5119 H   0  0  0  0  0  0  0  0  0  0  0  0
   -4.5499   10.5563   -7.7689 H   0  0  0  0  0  0  0  0  0  0  0  0
   -9.4903   12.1438   -7.9524 H   0  0  0  0  0  0  0  0  0  0  0  0
  -10.7843   10.9547   -8.1039 H   0  0  0  0  0  0  0  0  0  0  0  0
  -10.8304   11.9987   -5.8098 H   0  0  0  0  0  0  0  0  0  0  0  0
  -10.3734   10.2520   -5.6812 H   0  0  0  0  0  0  0  0  0  0  0  0
   -8.9433   12.5776   -2.0967 H   0  0  0  0  0  0  0  0  0  0  0  0
  -10.4387   12.4686   -3.2104 H   0  0  0  0  0  0  0  0  0  0  0  0
  -10.7053   10.8329   -1.7083 H   0  0  0  0  0  0  0  0  0  0  0  0
   -8.0979   10.8232   -1.1126 H   0  0  0  0  0  0  0  0  0  0  0  0
   -9.2379    9.4580   -0.7510 H   0  0  0  0  0  0  0  0  0  0  0  0
   -7.5115    9.6658   -3.2285 H   0  0  0  0  0  0  0  0  0  0  0  0
   -7.1056    8.7291   -1.7239 H   0  0  0  0  0  0  0  0  0  0  0  0
   -8.3620    7.5093   -0.8688 H   0  0  0  0  0  0  0  0  0  0  0  0
   -9.6454    6.5404   -1.7318 H   0  0  0  0  0  0  0  0  0  0  0  0
   -8.2805    4.9937   -1.8442 H   0  0  0  0  0  0  0  0  0  0  0  0
   -6.8848    6.3773   -0.0966 H   0  0  0  0  0  0  0  0  0  0  0  0
   -6.2332    4.8612   -0.8419 H   0  0  0  0  0  0  0  0  0  0  0  0
   -5.6047    7.7280   -1.6524 H   0  0  0  0  0  0  0  0  0  0  0  0
   -4.5074    6.5330   -0.8419 H   0  0  0  0  0  0  0  0  0  0  0  0
   -4.8156    6.9973   -3.5893 H   0  0  0  0  0  0  0  0  0  0  0  0
   -3.9197    5.6514   -2.7481 H   0  0  0  0  0  0  0  0  0  0  0  0
   -5.5531    4.9525   -4.5190 H   0  0  0  0  0  0  0  0  0  0  0  0
   -5.7539    4.2196   -2.8705 H   0  0  0  0  0  0  0  0  0  0  0  0
   -7.3895    6.5311   -4.0222 H   0  0  0  0  0  0  0  0  0  0  0  0
   -7.9370    4.8255   -3.8273 H   0  0  0  0  0  0  0  0  0  0  0  0
  -10.5610    7.7167   -3.7895 H   0  0  0  0  0  0  0  0  0  0  0  0
  -10.6271    8.3731   -2.1344 H   0  0  0  0  0  0  0  0  0  0  0  0
   -9.1620    9.9253   -4.3372 H   0  0  0  0  0  0  0  0  0  0  0  0
  -10.9066   10.0670   -4.2344 H   0  0  0  0  0  0  0  0  0  0  0  0
   -7.3829   12.2903   -6.7280 H   0  0  0  0  0  0  0  0  0  0  0  0
   -6.7807   11.2095   -5.3942 H   0  0  0  0  0  0  0  0  0  0  0  0
  1  2  1  0
  2  3  1  0
  3  4  1  0
  4  5  1  0
  5  6  2  0
  6  7  1  0
  7  8  2  0
  8  9  1  0
  9 10  2  0
 10 11  1  0
 11 12  1  0
 11 13  1  0
 11 14  1  0
 10 15  1  0
 15 16  1  0
 16 17  1  0
 17 18  1  0
 18 19  1  0
 19 20  1  0
 20 21  1  0
 21 22  1  0
 22 23  1  0
 23 24  1  0
 15 25  2  0
  6 26  1  0
 26 27  2  0
 27 28  1  0
 28 29  1  0
 29 30  1  0
 30 31  1  0
 31 32  2  0
 31 33  1  0
 33 34  1  0
 34 35  1  0
 35 36  1  0
 36 37  1  0
 37 38  1  0
 38 39  1  0
 39 40  1  0
 40 41  1  0
 41 42  1  0
 42 43  1  0
 43 44  1  0
 37 45  1  0
 45 46  1  0
 30 47  1  0
 27  4  1  0
 46 34  1  0
 25  7  1  0
 47 26  1  0
 24 19  1  0
 44 39  1  0
  1 48  1  0
  1 49  1  0
  1 50  1  0
  2 51  1  0
  2 52  1  0
  3 53  1  0
  3 54  1  0
  8 55  1  0
  9 56  1  0
 17 57  1  0
 17 58  1  0
 18 59  1  0
 18 60  1  0
 20 61  1  0
 20 62  1  0
 21 63  1  0
 21 64  1  0
 22 65  1  0
 22 66  1  0
 23 67  1  0
 23 68  1  0
 24 69  1  0
 24 70  1  0
 25 71  1  0
 28 72  1  0
 28 73  1  0
 29 74  1  0
 29 75  1  0
 33 76  1  0
 33 77  1  0
 34 78  1  0
 35 79  1  0
 35 80  1  0
 36 81  1  0
 36 82  1  0
 38 83  1  0
 38 84  1  0
 39 85  1  0
 40 86  1  0
 40 87  1  0
 41 88  1  0
 41 89  1  0
 42 90  1  0
 42 91  1  0
 43 92  1  0
 43 93  1  0
 44 94  1  0
 44 95  1  0
 45 96  1  0
 45 97  1  0
 46 98  1  0
 46 99  1  0
 47100  1  0
 47101  1  0
M  END
$$$$
