
     RDKit          3D

 90 95  0  0  0  0  0  0  0  0999 V2000
    0.0470   12.9700  -10.9810 C   0  0  0  0  0  0  0  0  0  0  0  0
   -1.3110   13.0600  -11.0610 O   0  0  0  0  0  0  0  0  0  0  0  0
   -2.3070   12.1930  -10.4900 C   0  0  0  0  0  0  0  0  0  0  0  0
   -3.5780   12.8170  -10.5680 C   0  0  0  0  0  0  0  0  0  0  0  0
   -4.4850   11.9140   -9.9210 C   0  0  0  0  0  0  0  0  0  0  0  0
   -4.1480   10.7410   -9.3690 C   0  0  0  0  0  0  0  0  0  0  0  0
   -5.3640   10.1680   -8.5500 C   0  0  0  0  0  0  0  0  0  0  0  0
   -6.2510    9.7640   -7.9390 C   0  0  0  0  0  0  0  0  0  0  0  0
   -7.3650    9.2720   -7.1950 C   0  0  0  0  0  0  0  0  0  0  0  0
   -7.2510    9.2540   -5.7740 C   0  0  0  0  0  0  0  0  0  0  0  0
   -8.3260    9.0840   -5.0280 C   0  0  0  0  0  0  0  0  0  0  0  0
   -8.4650    8.7180   -3.5980 C   0  0  0  0  0  0  0  0  0  0  0  0
   -9.4080    8.0910   -2.9360 N   0  0  0  0  0  0  0  0  0  0  0  0
   -8.8740    7.5210   -1.7700 N   0  0  0  0  0  0  0  0  0  0  0  0
   -9.7110    6.7420   -0.9440 C   0  0  0  0  0  0  0  0  0  0  0  0
   -9.5210    5.2460   -0.9380 C   0  0  0  0  0  0  0  0  0  0  0  0
   -8.0780    4.9210   -1.0930 C   0  0  0  0  0  0  0  0  0  0  0  0
   -7.5700    4.7650   -2.4430 N   0  0  0  0  0  0  0  0  0  0  0  0
   -6.0700    4.8410   -2.3460 C   0  0  0  0  0  0  0  0  0  0  0  0
   -5.5240    4.1590   -3.5760 C   0  0  0  0  0  0  0  0  0  0  0  0
   -6.3050    4.5410   -4.6930 O   0  0  0  0  0  0  0  0  0  0  0  0
   -6.8090    5.8020   -4.4710 C   0  0  0  0  0  0  0  0  0  0  0  0
   -7.9530    5.6920   -3.4410 C   0  0  0  0  0  0  0  0  0  0  0  0
   -7.5830    7.8080   -1.7150 C   0  0  0  0  0  0  0  0  0  0  0  0
   -7.3120    8.5650   -2.8280 C   0  0  0  0  0  0  0  0  0  0  0  0
   -5.9900    9.1960   -2.9690 C   0  0  0  0  0  0  0  0  0  0  0  0
   -5.0230    8.1680   -2.9640 N   0  0  0  0  0  0  0  0  0  0  0  0
   -3.7370    8.3520   -3.9870 S   0  0  0  0  0  6  0  0  0  0  0  0
   -3.8070    7.2210   -5.3610 C   0  0  0  0  0  0  0  0  0  0  0  0
   -2.3850    8.1700   -3.3570 O   0  0  0  0  0  0  0  0  0  0  0  0
   -3.7120    9.7480   -4.6270 O   0  0  0  0  0  0  0  0  0  0  0  0
   -5.1710    7.1850   -1.9950 C   0  0  0  0  0  0  0  0  0  0  0  0
   -6.3230    7.4240   -0.9700 C   0  0  0  0  0  0  0  0  0  0  0  0
   -9.5870    8.9280   -5.6850 C   0  0  0  0  0  0  0  0  0  0  0  0
   -9.7180    8.9370   -7.0470 C   0  0  0  0  0  0  0  0  0  0  0  0
   -8.5890    9.1060   -7.7940 C   0  0  0  0  0  0  0  0  0  0  0  0
   -8.7410    8.9940   -9.5360 Cl  0  0  0  0  0  0  0  0  0  0  0  0
   -2.9660   10.1790   -9.3320 C   0  0  0  0  0  0  0  0  0  0  0  0
   -1.9730   11.0840  -10.0090 C   0  0  0  0  0  0  0  0  0  0  0  0
   -0.5870   10.4600  -10.0630 C   0  0  0  0  0  0  0  0  0  0  0  0
   -0.7780    9.1250   -9.4440 N   0  0  0  0  0  0  0  0  0  0  0  0
   -0.4200    9.1410   -8.0710 C   0  0  0  0  0  0  0  0  0  0  0  0
   -0.8370   10.4340   -7.4390 C   0  0  0  0  0  0  0  0  0  0  0  0
    0.0620   11.5050   -7.6200 C   0  0  0  0  0  0  0  0  0  0  0  0
   -0.2950   12.7670   -7.2900 C   0  0  0  0  0  0  0  0  0  0  0  0
   -1.5160   13.0480   -6.7770 C   0  0  0  0  0  0  0  0  0  0  0  0
   -2.4140   11.9910   -6.5860 C   0  0  0  0  0  0  0  0  0  0  0  0
   -2.0620   10.6910   -6.9210 C   0  0  0  0  0  0  0  0  0  0  0  0
    0.3515   12.9498   -9.9242 H   0  0  0  0  0  0  0  0  0  0  0  0
    0.3832   12.0476  -11.4771 H   0  0  0  0  0  0  0  0  0  0  0  0
    0.5020   13.8400  -11.4771 H   0  0  0  0  0  0  0  0  0  0  0  0
   -3.8174   13.7875  -11.0272 H   0  0  0  0  0  0  0  0  0  0  0  0
   -5.5438   12.2087   -9.8742 H   0  0  0  0  0  0  0  0  0  0  0  0
   -6.2669    9.3818   -5.2995 H   0  0  0  0  0  0  0  0  0  0  0  0
   -9.5662    7.0924    0.0886 H   0  0  0  0  0  0  0  0  0  0  0  0
  -10.7167    6.8853   -1.3660 H   0  0  0  0  0  0  0  0  0  0  0  0
   -9.8877    4.8351    0.0142 H   0  0  0  0  0  0  0  0  0  0  0  0
  -10.0845    4.8049   -1.7734 H   0  0  0  0  0  0  0  0  0  0  0  0
   -7.5046    5.7296   -0.6161 H   0  0  0  0  0  0  0  0  0  0  0  0
   -7.9621    3.9288   -0.6324 H   0  0  0  0  0  0  0  0  0  0  0  0
   -5.7441    5.8912   -2.3180 H   0  0  0  0  0  0  0  0  0  0  0  0
   -5.7065    4.3553   -1.4284 H   0  0  0  0  0  0  0  0  0  0  0  0
   -4.4787    4.4630   -3.7342 H   0  0  0  0  0  0  0  0  0  0  0  0
   -5.5640    3.0673   -3.4473 H   0  0  0  0  0  0  0  0  0  0  0  0
   -6.0163    6.4556   -4.0781 H   0  0  0  0  0  0  0  0  0  0  0  0
   -7.1856    6.2307   -5.4114 H   0  0  0  0  0  0  0  0  0  0  0  0
   -8.1364    6.6754   -2.9835 H   0  0  0  0  0  0  0  0  0  0  0  0
   -8.8752    5.3537   -3.9362 H   0  0  0  0  0  0  0  0  0  0  0  0
   -5.9397    9.7535   -3.9159 H   0  0  0  0  0  0  0  0  0  0  0  0
   -5.8086    9.9006   -2.1440 H   0  0  0  0  0  0  0  0  0  0  0  0
   -3.8708    6.1896   -4.9840 H   0  0  0  0  0  0  0  0  0  0  0  0
   -4.6931    7.4429   -5.9738 H   0  0  0  0  0  0  0  0  0  0  0  0
   -2.9003    7.3320   -5.9738 H   0  0  0  0  0  0  0  0  0  0  0  0
   -5.3644    6.2306   -2.5065 H   0  0  0  0  0  0  0  0  0  0  0  0
   -4.2390    7.1924   -1.4108 H   0  0  0  0  0  0  0  0  0  0  0  0
   -6.5016    6.5026   -0.3963 H   0  0  0  0  0  0  0  0  0  0  0  0
   -6.0411    8.2335   -0.2806 H   0  0  0  0  0  0  0  0  0  0  0  0
  -10.4891    8.7953   -5.0696 H   0  0  0  0  0  0  0  0  0  0  0  0
  -10.7013    8.8121   -7.5240 H   0  0  0  0  0  0  0  0  0  0  0  0
   -2.7362    9.2032   -8.8792 H   0  0  0  0  0  0  0  0  0  0  0  0
   -0.2401   10.3644  -11.1025 H   0  0  0  0  0  0  0  0  0  0  0  0
    0.1731   11.0646   -9.5466 H   0  0  0  0  0  0  0  0  0  0  0  0
   -1.7677    8.8530   -9.5302 H   0  0  0  0  0  0  0  0  0  0  0  0
   -0.9202    8.3076   -7.5560 H   0  0  0  0  0  0  0  0  0  0  0  0
    0.6717    9.0368   -7.9850 H   0  0  0  0  0  0  0  0  0  0  0  0
    1.0630   11.3123   -8.0334 H   0  0  0  0  0  0  0  0  0  0  0  0
    0.4243   13.5852   -7.4421 H   0  0  0  0  0  0  0  0  0  0  0  0
   -1.7952   14.0797   -6.5171 H   0  0  0  0  0  0  0  0  0  0  0  0
   -3.4101   12.1933   -6.1655 H   0  0  0  0  0  0  0  0  0  0  0  0
   -2.7773    9.8698   -6.7660 H   0  0  0  0  0  0  0  0  0  0  0  0
  1  2  1  0
  2  3  1  0
  3  4  2  0
  4  5  1  0
  5  6  2  0
  6  7  1  0
  7  8  3  0
  8  9  1  0
  9 10  2  0
 10 11  1  0
 11 12  1  0
 12 13  2  0
 13 14  1  0
 14 15  1  0
 15 16  1  0
 16 17  1  0
 17 18  1  0
 18 19  1  0
 19 20  1  0
 20 21  1  0
 21 22  1  0
 22 23  1  0
 14 24  1  0
 24 25  2  0
 25 26  1  0
 26 27  1  0
 27 28  1  0
 28 29  1  0
 28 30  2  0
 28 31  2  0
 27 32  1  0
 32 33  1  0
 11 34  2  0
 34 35  1  0
 35 36  2  0
 36 37  1  0
  6 38  1  0
 38 39  2  0
 39 40  1  0
 40 41  1  0
 41 42  1  0
 42 43  1  0
 43 44  2  0
 44 45  1  0
 45 46  2  0
 46 47  1  0
 47 48  2  0
 39  3  1  0
 48 43  1  0
 36  9  1  0
 25 12  1  0
 23 18  1  0
 33 24  1  0
  1 49  1  0
  1 50  1  0
  1 51  1  0
  4 52  1  0
  5 53  1  0
 10 54  1  0
 15 55  1  0
 15 56  1  0
 16 57  1  0
 16 58  1  0
 17 59  1  0
 17 60  1  0
 19 61  1  0
 19 62  1  0
 20 63  1  0
 20 64  1  0
 22 65  1  0
 22 66  1  0
 23 67  1  0
 23 68  1  0
 26 69  1  0
 26 70  1  0
 29 71  1  0
 29 72  1  0
 29 73  1  0
 32 74  1  0
 32 75  1  0
 33 76  1  0
 33 77  1  0
 34 78  1  0
 35 79  1  0
 38 80  1  0
 40 81  1  0
 40 82  1  0
 41 83  1  0
 42 84  1  0
 42 85  1  0
 44 86  1  0
 45 87  1  0
 46 88  1  0
 47 89  1  0
 48 90  1  0
M  END
$$$$
