
     RDKit          3D

 94100  0  0  0  0  0  0  0  0999 V2000
   -3.3010   11.6730   -7.1370 C   0  0  0  0  0  0  0  0  0  0  0  0
   -2.1920   10.4600   -6.4240 S   0  0  0  0  0  6  0  0  0  0  0  0
   -1.3780    9.7950   -7.4810 O   0  0  0  0  0  0  0  0  0  0  0  0
   -3.0690    9.3460   -5.8280 O   0  0  0  0  0  0  0  0  0  0  0  0
   -1.2730   11.1170   -5.2220 N   0  0  0  0  0  0  0  0  0  0  0  0
   -1.1670   12.4940   -5.0170 C   0  0  0  0  0  0  0  0  0  0  0  0
    0.0800   12.9260   -4.1890 C   0  0  0  0  0  0  0  0  0  0  0  0
   -0.0060   12.0650   -2.9480 C   0  0  0  0  0  0  0  0  0  0  0  0
   -0.1310   10.7170   -3.2730 C   0  0  0  0  0  0  0  0  0  0  0  0
   -0.3320    9.9810   -2.0980 C   0  0  0  0  0  0  0  0  0  0  0  0
   -0.6020    8.5340   -2.1310 C   0  0  0  0  0  0  0  0  0  0  0  0
    0.1690    7.8210   -1.1840 C   0  0  0  0  0  0  0  0  0  0  0  0
   -0.0490    6.4380   -1.1030 C   0  0  0  0  0  0  0  0  0  0  0  0
   -0.9650    5.8670   -1.9150 C   0  0  0  0  0  0  0  0  0  0  0  0
   -1.3160    4.1150   -1.8290 Cl  0  0  0  0  0  0  0  0  0  0  0  0
   -1.7070    6.6030   -2.8510 C   0  0  0  0  0  0  0  0  0  0  0  0
   -2.5610    5.7500   -3.7620 C   0  0  0  0  0  0  0  0  0  0  0  0
   -3.2190    5.1220   -4.4500 C   0  0  0  0  0  0  0  0  0  0  0  0
   -4.0370    4.3550   -5.3180 C   0  0  0  0  0  0  0  0  0  0  0  0
   -3.9450    3.1210   -5.7600 C   0  0  0  0  0  0  0  0  0  0  0  0
   -4.9050    2.5330   -6.6730 C   0  0  0  0  0  0  0  0  0  0  0  0
   -5.9720    3.2960   -7.1180 C   0  0  0  0  0  0  0  0  0  0  0  0
   -6.0720    4.5870   -6.6540 C   0  0  0  0  0  0  0  0  0  0  0  0
   -5.1740    5.1160   -5.7990 C   0  0  0  0  0  0  0  0  0  0  0  0
   -7.2670    5.3650   -7.1740 C   0  0  0  0  0  0  0  0  0  0  0  0
   -7.2190    5.3210   -8.6040 N   0  0  0  0  0  0  0  0  0  0  0  0
   -6.9590    3.9940   -9.1730 C   0  0  2  0  0  0  0  0  0  0  0  0
   -8.0400    3.7810  -10.2190 C   0  0  0  0  0  0  0  0  0  0  0  0
   -7.8000    2.9280  -11.0780 O   0  0  0  0  0  0  0  0  0  0  0  0
   -9.2210    4.5230  -10.1660 N   0  0  0  0  0  0  0  0  0  0  0  0
   -9.7170    5.4620   -9.2270 C   0  0  0  0  0  0  0  0  0  0  0  0
   -9.9920    6.7970   -9.9470 C   0  0  0  0  0  0  0  0  0  0  0  0
  -10.9660    6.5740  -11.0440 C   0  0  0  0  0  0  0  0  0  0  0  0
  -11.3550    5.0800  -11.2050 C   0  0  0  0  0  0  0  0  0  0  0  0
  -10.0890    4.3000  -11.3630 C   0  0  0  0  0  0  0  0  0  0  0  0
   -7.0060    2.9320   -8.0980 C   0  0  0  0  0  0  0  0  0  0  0  0
   -1.5200    7.9350   -2.9460 C   0  0  0  0  0  0  0  0  0  0  0  0
   -0.3090   10.8950   -1.1390 N   0  0  0  0  0  0  0  0  0  0  0  0
   -0.1180   12.1380   -1.6550 N   0  0  0  0  0  0  0  0  0  0  0  0
    0.0420   13.3020   -0.7700 C   0  0  0  0  0  0  0  0  0  0  0  0
   -1.2990   13.8050   -0.3670 C   0  0  0  0  0  0  0  0  0  0  0  0
   -2.4330   13.0670   -0.9720 C   0  0  0  0  0  0  0  0  0  0  0  0
   -2.3450   12.3640   -2.1540 N   0  0  0  0  0  0  0  0  0  0  0  0
   -2.2910   12.9680   -3.4190 C   0  0  0  0  0  0  0  0  0  0  0  0
   -3.3490   12.4010   -4.3590 C   0  0  0  0  0  0  0  0  0  0  0  0
   -4.1930   11.5200   -3.6570 O   0  0  0  0  0  0  0  0  0  0  0  0
   -3.4090   10.4550   -3.2320 C   0  0  0  0  0  0  0  0  0  0  0  0
   -2.5110   10.9530   -2.1110 C   0  0  0  0  0  0  0  0  0  0  0  0
   -0.1090   10.3800   -4.7150 C   0  0  0  0  0  0  0  0  0  0  0  0
   -3.8065   12.2259   -6.3315 H   0  0  0  0  0  0  0  0  0  0  0  0
   -2.7259   12.3750   -7.7586 H   0  0  0  0  0  0  0  0  0  0  0  0
   -4.0516   11.1629   -7.7586 H   0  0  0  0  0  0  0  0  0  0  0  0
   -1.1148   12.9854   -5.9998 H   0  0  0  0  0  0  0  0  0  0  0  0
   -2.0506   12.7942   -4.4346 H   0  0  0  0  0  0  0  0  0  0  0  0
    1.0088   12.7257   -4.7432 H   0  0  0  0  0  0  0  0  0  0  0  0
    0.0935   14.0027   -3.9640 H   0  0  0  0  0  0  0  0  0  0  0  0
    0.9047    8.3270   -0.5415 H   0  0  0  0  0  0  0  0  0  0  0  0
    0.5190    5.8258   -0.3870 H   0  0  0  0  0  0  0  0  0  0  0  0
   -3.0992    2.5049   -5.4210 H   0  0  0  0  0  0  0  0  0  0  0  0
   -4.7875    1.4921   -7.0089 H   0  0  0  0  0  0  0  0  0  0  0  0
   -5.3072    6.1529   -5.4569 H   0  0  0  0  0  0  0  0  0  0  0  0
   -8.1997    4.9053   -6.8151 H   0  0  0  0  0  0  0  0  0  0  0  0
   -7.2378    6.4050   -6.8169 H   0  0  0  0  0  0  0  0  0  0  0  0
   -8.1252    5.6518   -8.9648 H   0  0  0  0  0  0  0  0  0  0  0  0
   -5.9563    3.9266   -9.6203 H   0  0  0  0  0  0  0  0  0  0  0  0
  -10.6500    5.0830   -8.7845 H   0  0  0  0  0  0  0  0  0  0  0  0
   -8.9751    5.6165   -8.4297 H   0  0  0  0  0  0  0  0  0  0  0  0
  -10.4058    7.5219   -9.2306 H   0  0  0  0  0  0  0  0  0  0  0  0
   -9.0529    7.1899  -10.3638 H   0  0  0  0  0  0  0  0  0  0  0  0
  -11.8761    7.1535  -10.8298 H   0  0  0  0  0  0  0  0  0  0  0  0
  -10.4899    6.8963  -11.9818 H   0  0  0  0  0  0  0  0  0  0  0  0
  -11.8995    4.7356  -10.3134 H   0  0  0  0  0  0  0  0  0  0  0  0
  -12.0069    4.9417  -12.0802 H   0  0  0  0  0  0  0  0  0  0  0  0
  -10.3252    3.2293  -11.4517 H   0  0  0  0  0  0  0  0  0  0  0  0
   -9.5611    4.6321  -12.2691 H   0  0  0  0  0  0  0  0  0  0  0  0
   -7.9965    2.9168   -7.6198 H   0  0  0  0  0  0  0  0  0  0  0  0
   -6.8282    1.9300   -8.5156 H   0  0  0  0  0  0  0  0  0  0  0  0
   -2.0978    8.5300   -3.6686 H   0  0  0  0  0  0  0  0  0  0  0  0
    0.6076   13.0067    0.1260 H   0  0  0  0  0  0  0  0  0  0  0  0
    0.5873   14.0956   -1.3019 H   0  0  0  0  0  0  0  0  0  0  0  0
   -1.3817   13.7275    0.7271 H   0  0  0  0  0  0  0  0  0  0  0  0
   -1.3687   14.8417   -0.7280 H   0  0  0  0  0  0  0  0  0  0  0  0
   -2.7549   12.3383   -0.2134 H   0  0  0  0  0  0  0  0  0  0  0  0
   -3.0925   13.8964   -1.2672 H   0  0  0  0  0  0  0  0  0  0  0  0
   -2.4575   14.0494   -3.3053 H   0  0  0  0  0  0  0  0  0  0  0  0
   -1.3012   12.7657   -3.8541 H   0  0  0  0  0  0  0  0  0  0  0  0
   -3.9472   13.2255   -4.7742 H   0  0  0  0  0  0  0  0  0  0  0  0
   -2.8526   11.8537   -5.1739 H   0  0  0  0  0  0  0  0  0  0  0  0
   -4.0515    9.6421   -2.8628 H   0  0  0  0  0  0  0  0  0  0  0  0
   -2.8032   10.0692   -4.0651 H   0  0  0  0  0  0  0  0  0  0  0  0
   -2.9603   10.6767   -1.1457 H   0  0  0  0  0  0  0  0  0  0  0  0
   -1.5214   10.4887   -2.2343 H   0  0  0  0  0  0  0  0  0  0  0  0
    0.8204   10.7253   -5.1914 H   0  0  0  0  0  0  0  0  0  0  0  0
   -0.1475    9.2994   -4.9172 H   0  0  0  0  0  0  0  0  0  0  0  0
  1  2  1  0
  2  3  2  0
  2  4  2  0
  2  5  1  0
  5  6  1  0
  6  7  1  0
  7  8  1  0
  8  9  2  0
  9 10  1  0
 10 11  1  0
 11 12  2  0
 12 13  1  0
 13 14  2  0
 14 15  1  0
 14 16  1  0
 16 17  1  0
 17 18  3  0
 18 19  1  0
 19 20  2  0
 20 21  1  0
 21 22  2  0
 22 23  1  0
 23 24  2  0
 23 25  1  0
 25 26  1  0
 26 27  1  0
 27 28  1  0
 28 29  2  0
 28 30  1  0
 30 31  1  0
 31 32  1  0
 32 33  1  0
 33 34  1  0
 34 35  1  0
 27 36  1  0
 16 37  2  0
 10 38  2  0
 38 39  1  0
 39 40  1  0
 40 41  1  0
 41 42  1  0
 42 43  1  0
 43 44  1  0
 44 45  1  0
 45 46  1  0
 46 47  1  0
 47 48  1  0
  9 49  1  0
 49  5  1  0
 39  8  1  0
 48 43  1  0
 37 11  1  0
 24 19  1  0
 35 30  1  0
 36 22  1  0
  1 50  1  0
  1 51  1  0
  1 52  1  0
  6 53  1  0
  6 54  1  0
  7 55  1  0
  7 56  1  0
 12 57  1  0
 13 58  1  0
 20 59  1  0
 21 60  1  0
 24 61  1  0
 25 62  1  0
 25 63  1  0
 26 64  1  0
 27 65  1  6
 31 66  1  0
 31 67  1  0
 32 68  1  0
 32 69  1  0
 33 70  1  0
 33 71  1  0
 34 72  1  0
 34 73  1  0
 35 74  1  0
 35 75  1  0
 36 76  1  0
 36 77  1  0
 37 78  1  0
 40 79  1  0
 40 80  1  0
 41 81  1  0
 41 82  1  0
 42 83  1  0
 42 84  1  0
 44 85  1  0
 44 86  1  0
 45 87  1  0
 45 88  1  0
 47 89  1  0
 47 90  1  0
 48 91  1  0
 48 92  1  0
 49 93  1  0
 49 94  1  0
M  END
$$$$
