
     RDKit          3D

 90 95  0  0  0  0  0  0  0  0999 V2000
   -8.0630   12.6980   -1.4740 C   0  0  0  0  0  0  0  0  0  0  0  0
   -8.1860   11.6790   -2.9410 S   0  0  0  0  0  6  0  0  0  0  0  0
   -7.1410   10.5780   -2.8420 O   0  0  0  0  0  0  0  0  0  0  0  0
   -7.9410   12.5340   -4.1380 O   0  0  0  0  0  0  0  0  0  0  0  0
   -9.6950   10.9320   -3.0630 N   0  0  0  0  0  0  0  0  0  0  0  0
   -9.9550   10.0600   -1.9660 C   0  0  0  0  0  0  0  0  0  0  0  0
   -9.9730    8.6020   -2.3440 C   0  0  0  0  0  0  0  0  0  0  0  0
   -9.1450    8.2700   -3.5520 C   0  0  0  0  0  0  0  0  0  0  0  0
   -9.2500    9.1560   -4.6040 C   0  0  0  0  0  0  0  0  0  0  0  0
   -8.4690    8.6730   -5.6390 C   0  0  0  0  0  0  0  0  0  0  0  0
   -8.4440    9.3930   -6.9210 C   0  0  0  0  0  0  0  0  0  0  0  0
   -9.0250    8.7580   -8.0130 C   0  0  0  0  0  0  0  0  0  0  0  0
   -8.9290    9.2730   -9.3130 C   0  0  0  0  0  0  0  0  0  0  0  0
   -8.2260   10.4420   -9.4640 C   0  0  0  0  0  0  0  0  0  0  0  0
   -8.0540   11.1720  -11.0440 Cl  0  0  0  0  0  0  0  0  0  0  0  0
   -7.6420   11.0810   -8.3870 C   0  0  0  0  0  0  0  0  0  0  0  0
   -6.6810   12.1730   -8.8040 C   0  0  0  0  0  0  0  0  0  0  0  0
   -5.4050   11.4240   -9.1630 C   0  0  0  0  0  0  0  0  0  0  0  0
   -4.3790   11.2170   -8.1900 C   0  0  0  0  0  0  0  0  0  0  0  0
   -4.2910    9.8770   -7.6940 C   0  0  0  0  0  0  0  0  0  0  0  0
   -3.3970    9.4560   -6.7920 C   0  0  0  0  0  0  0  0  0  0  0  0
   -2.4690   10.3810   -6.2890 C   0  0  0  0  0  0  0  0  0  0  0  0
   -1.3000    9.9040   -5.0980 Cl  0  0  0  0  0  0  0  0  0  0  0  0
   -2.5240   11.6820   -6.7600 C   0  0  0  0  0  0  0  0  0  0  0  0
   -1.3810   12.5880   -6.3270 C   0  0  0  0  0  0  0  0  0  0  0  0
   -0.2780   12.1600   -7.2170 N   0  0  0  0  0  0  0  0  0  0  0  0
   -0.6020   12.2760   -8.6330 C   0  0  0  0  0  0  0  0  0  0  0  0
   -0.3920   10.9180   -9.2270 C   0  0  0  0  0  0  0  0  0  0  0  0
   -0.2600   10.7230  -10.5450 C   0  0  0  0  0  0  0  0  0  0  0  0
   -0.0340    9.4480  -11.0620 C   0  0  0  0  0  0  0  0  0  0  0  0
    0.0530    8.4010  -10.1940 C   0  0  0  0  0  0  0  0  0  0  0  0
   -0.0820    8.5860   -8.8320 C   0  0  0  0  0  0  0  0  0  0  0  0
   -0.3050    9.8440   -8.3420 C   0  0  0  0  0  0  0  0  0  0  0  0
   -3.4500   12.0810   -7.6700 C   0  0  0  0  0  0  0  0  0  0  0  0
   -7.7490   10.5740   -7.1260 C   0  0  0  0  0  0  0  0  0  0  0  0
   -7.9370    7.5670   -5.2000 N   0  0  0  0  0  0  0  0  0  0  0  0
   -8.3290    7.2970   -3.9240 N   0  0  0  0  0  0  0  0  0  0  0  0
   -7.8870    6.1750   -3.1550 C   0  0  0  0  0  0  0  0  0  0  0  0
   -6.6350    6.3030   -2.3470 C   0  0  0  0  0  0  0  0  0  0  0  0
   -5.6400    5.3310   -2.9820 C   0  0  0  0  0  0  0  0  0  0  0  0
   -4.7280    5.8340   -3.8880 N   0  0  0  0  0  0  0  0  0  0  0  0
   -4.8080    5.8710   -5.2600 C   0  0  0  0  0  0  0  0  0  0  0  0
   -3.3610    5.8850   -5.8180 C   0  0  0  0  0  0  0  0  0  0  0  0
   -2.6140    6.9180   -5.2920 O   0  0  0  0  0  0  0  0  0  0  0  0
   -3.3480    7.7480   -4.4740 C   0  0  0  0  0  0  0  0  0  0  0  0
   -4.0210    7.0090   -3.3650 C   0  0  0  0  0  0  0  0  0  0  0  0
  -10.0590   10.3900   -4.3500 C   0  0  0  0  0  0  0  0  0  0  0  0
   -8.1396   12.0631   -0.5790 H   0  0  0  0  0  0  0  0  0  0  0  0
   -7.0952   13.2209   -1.4708 H   0  0  0  0  0  0  0  0  0  0  0  0
   -8.8786   13.4361   -1.4708 H   0  0  0  0  0  0  0  0  0  0  0  0
   -9.1729   10.2128   -1.2077 H   0  0  0  0  0  0  0  0  0  0  0  0
  -10.9583   10.3073   -1.5889 H   0  0  0  0  0  0  0  0  0  0  0  0
   -9.5903    8.0200   -1.4927 H   0  0  0  0  0  0  0  0  0  0  0  0
  -11.0144    8.3532   -2.5960 H   0  0  0  0  0  0  0  0  0  0  0  0
   -9.5780    7.8209   -7.8514 H   0  0  0  0  0  0  0  0  0  0  0  0
   -9.3944    8.7650  -10.1705 H   0  0  0  0  0  0  0  0  0  0  0  0
   -7.0687   12.7239   -9.6736 H   0  0  0  0  0  0  0  0  0  0  0  0
   -6.5238   12.9226   -8.0145 H   0  0  0  0  0  0  0  0  0  0  0  0
   -5.7138   10.4269   -9.5101 H   0  0  0  0  0  0  0  0  0  0  0  0
   -4.9224   12.0974   -9.8867 H   0  0  0  0  0  0  0  0  0  0  0  0
   -5.0100    9.1406   -8.0823 H   0  0  0  0  0  0  0  0  0  0  0  0
   -3.3895    8.4097   -6.4527 H   0  0  0  0  0  0  0  0  0  0  0  0
   -1.6315   13.6473   -6.4856 H   0  0  0  0  0  0  0  0  0  0  0  0
   -1.1380   12.5065   -5.2573 H   0  0  0  0  0  0  0  0  0  0  0  0
    0.5462   12.7459   -7.0211 H   0  0  0  0  0  0  0  0  0  0  0  0
   -1.6490   12.5888   -8.7594 H   0  0  0  0  0  0  0  0  0  0  0  0
    0.0299   13.0292   -9.1264 H   0  0  0  0  0  0  0  0  0  0  0  0
   -0.3309   11.5810  -11.2298 H   0  0  0  0  0  0  0  0  0  0  0  0
    0.0716    9.2908  -12.1456 H   0  0  0  0  0  0  0  0  0  0  0  0
    0.2342    7.3892  -10.5856 H   0  0  0  0  0  0  0  0  0  0  0  0
   -0.0108    7.7287   -8.1465 H   0  0  0  0  0  0  0  0  0  0  0  0
   -0.4147   10.0066   -7.2596 H   0  0  0  0  0  0  0  0  0  0  0  0
   -3.4548   13.1303   -8.0002 H   0  0  0  0  0  0  0  0  0  0  0  0
   -7.2867   11.0990   -6.2771 H   0  0  0  0  0  0  0  0  0  0  0  0
   -8.6982    5.9223   -2.4563 H   0  0  0  0  0  0  0  0  0  0  0  0
   -7.6388    5.4157   -3.9112 H   0  0  0  0  0  0  0  0  0  0  0  0
   -6.2504    7.3325   -2.3938 H   0  0  0  0  0  0  0  0  0  0  0  0
   -6.8086    6.0746   -1.2851 H   0  0  0  0  0  0  0  0  0  0  0  0
   -5.0673    4.8691   -2.1643 H   0  0  0  0  0  0  0  0  0  0  0  0
   -6.2655    4.6470   -3.5743 H   0  0  0  0  0  0  0  0  0  0  0  0
   -5.3426    4.9828   -5.6279 H   0  0  0  0  0  0  0  0  0  0  0  0
   -5.3560    6.7661   -5.5894 H   0  0  0  0  0  0  0  0  0  0  0  0
   -2.8743    4.9311   -5.5667 H   0  0  0  0  0  0  0  0  0  0  0  0
   -3.4184    6.0278   -6.9072 H   0  0  0  0  0  0  0  0  0  0  0  0
   -2.6738    8.5002   -4.0385 H   0  0  0  0  0  0  0  0  0  0  0  0
   -4.1319    8.2147   -5.0885 H   0  0  0  0  0  0  0  0  0  0  0  0
   -3.2648    6.6822   -2.6360 H   0  0  0  0  0  0  0  0  0  0  0  0
   -4.7487    7.6771   -2.8812 H   0  0  0  0  0  0  0  0  0  0  0  0
   -9.8546   11.1333   -5.1347 H   0  0  0  0  0  0  0  0  0  0  0  0
  -11.1305   10.1413   -4.3597 H   0  0  0  0  0  0  0  0  0  0  0  0
  1  2  1  0
  2  3  2  0
  2  4  2  0
  2  5  1  0
  5  6  1  0
  6  7  1  0
  7  8  1  0
  8  9  2  0
  9 10  1  0
 10 11  1  0
 11 12  2  0
 12 13  1  0
 13 14  2  0
 14 15  1  0
 14 16  1  0
 16 17  1  0
 17 18  1  0
 18 19  1  0
 19 20  2  0
 20 21  1  0
 21 22  2  0
 22 23  1  0
 22 24  1  0
 24 25  1  0
 25 26  1  0
 26 27  1  0
 27 28  1  0
 28 29  2  0
 29 30  1  0
 30 31  2  0
 31 32  1  0
 32 33  2  0
 24 34  2  0
 16 35  2  0
 10 36  2  0
 36 37  1  0
 37 38  1  0
 38 39  1  0
 39 40  1  0
 40 41  1  0
 41 42  1  0
 42 43  1  0
 43 44  1  0
 44 45  1  0
 45 46  1  0
  9 47  1  0
 47  5  1  0
 37  8  1  0
 46 41  1  0
 35 11  1  0
 34 19  1  0
 33 28  1  0
  1 48  1  0
  1 49  1  0
  1 50  1  0
  6 51  1  0
  6 52  1  0
  7 53  1  0
  7 54  1  0
 12 55  1  0
 13 56  1  0
 17 57  1  0
 17 58  1  0
 18 59  1  0
 18 60  1  0
 20 61  1  0
 21 62  1  0
 25 63  1  0
 25 64  1  0
 26 65  1  0
 27 66  1  0
 27 67  1  0
 29 68  1  0
 30 69  1  0
 31 70  1  0
 32 71  1  0
 33 72  1  0
 34 73  1  0
 35 74  1  0
 38 75  1  0
 38 76  1  0
 39 77  1  0
 39 78  1  0
 40 79  1  0
 40 80  1  0
 42 81  1  0
 42 82  1  0
 43 83  1  0
 43 84  1  0
 45 85  1  0
 45 86  1  0
 46 87  1  0
 46 88  1  0
 47 89  1  0
 47 90  1  0
M  END
$$$$
