
     RDKit          3D

 86 90  0  0  0  0  0  0  0  0999 V2000
   -8.8610   13.0060   -4.2190 C   0  0  0  0  0  0  0  0  0  0  0  0
   -9.2030   12.1760   -3.0080 C   0  0  0  0  0  0  0  0  0  0  0  0
  -10.0620   13.0310   -2.0970 C   0  0  0  0  0  0  0  0  0  0  0  0
   -7.9420   11.8830   -2.2420 C   0  0  0  0  0  0  0  0  0  0  0  0
   -8.1990   10.5640   -1.4140 C   0  0  0  0  0  0  0  0  0  0  0  0
   -8.2080    9.5370   -2.3620 N   0  0  0  0  0  0  0  0  0  0  0  0
   -7.1750    8.5070   -2.3080 C   0  0  0  0  0  0  0  0  0  0  0  0
   -7.8360    7.1800   -2.1250 C   0  0  2  0  0  0  0  0  0  0  0  0
   -6.5670    6.3340   -1.9490 O   0  0  0  0  0  0  0  0  0  0  0  0
   -8.1560    6.5320   -3.5540 C   0  0  0  0  0  0  0  0  0  0  0  0
   -7.1820    7.1180   -4.4940 N   0  0  0  0  0  0  0  0  0  0  0  0
   -7.7340    7.9550   -5.4400 N   0  0  0  0  0  0  0  0  0  0  0  0
   -6.8590    8.3960   -6.2540 C   0  0  0  0  0  0  0  0  0  0  0  0
   -7.2000    9.2460   -7.4440 C   0  0  0  0  0  0  0  0  0  0  0  0
   -8.4870    9.0980   -7.9760 C   0  0  0  0  0  0  0  0  0  0  0  0
   -8.9970    9.9770   -8.9100 C   0  0  0  0  0  0  0  0  0  0  0  0
   -8.2130   11.0060   -9.3270 C   0  0  0  0  0  0  0  0  0  0  0  0
   -8.8090   12.0000  -10.2650 C   0  0  0  0  0  0  0  0  0  0  0  0
   -9.4290   12.9850   -9.5060 F   0  0  0  0  0  0  0  0  0  0  0  0
   -9.7370   11.4030  -11.0620 F   0  0  0  0  0  0  0  0  0  0  0  0
   -7.8200   12.5580  -11.0620 F   0  0  0  0  0  0  0  0  0  0  0  0
   -6.9230   11.1690   -8.8210 C   0  0  0  0  0  0  0  0  0  0  0  0
   -6.2380   12.4280   -9.2250 C   0  0  0  0  0  0  0  0  0  0  0  0
   -5.4370   12.2360  -10.3960 N   0  0  0  0  0  0  0  0  0  0  0  0
   -4.3170   13.0330  -10.5790 C   0  0  0  0  0  0  0  0  0  0  0  0
   -3.1330   12.4890   -9.8110 C   0  0  0  0  0  0  0  0  0  0  0  0
   -3.1020   13.0000   -8.4990 C   0  0  0  0  0  0  0  0  0  0  0  0
   -2.1310   12.5040   -7.6280 C   0  0  0  0  0  0  0  0  0  0  0  0
   -1.2380   11.5390   -8.0780 C   0  0  0  0  0  0  0  0  0  0  0  0
   -0.3090   11.0160   -7.2220 F   0  0  0  0  0  0  0  0  0  0  0  0
   -1.2900   11.0570   -9.3470 C   0  0  0  0  0  0  0  0  0  0  0  0
   -2.2740   11.5690  -10.2130 C   0  0  0  0  0  0  0  0  0  0  0  0
   -6.4160   10.2990   -7.8860 C   0  0  0  0  0  0  0  0  0  0  0  0
   -5.6290    7.8600   -5.8920 C   0  0  0  0  0  0  0  0  0  0  0  0
   -5.9180    7.0460   -4.7500 C   0  0  0  0  0  0  0  0  0  0  0  0
   -4.7240    6.4170   -4.1100 C   0  0  0  0  0  0  0  0  0  0  0  0
   -3.7440    6.0150   -5.1770 C   0  0  0  0  0  0  0  0  0  0  0  0
   -3.2810    7.0680   -5.9670 N   0  0  0  0  0  0  0  0  0  0  0  0
   -2.0290    8.0580   -5.3830 S   0  0  0  0  0  6  0  0  0  0  0  0
   -0.5200    7.3740   -6.1100 C   0  0  0  0  0  0  0  0  0  0  0  0
   -1.9080    7.9630   -3.9030 O   0  0  0  0  0  0  0  0  0  0  0  0
   -2.2120    9.4680   -5.8740 O   0  0  0  0  0  0  0  0  0  0  0  0
   -4.3260    7.8850   -6.5570 C   0  0  0  0  0  0  0  0  0  0  0  0
   -8.8530    9.7410   -3.5730 C   0  0  0  0  0  0  0  0  0  0  0  0
   -9.8700   10.8770   -3.4040 C   0  0  0  0  0  0  0  0  0  0  0  0
   -8.4604   13.9782   -3.8960 H   0  0  0  0  0  0  0  0  0  0  0  0
   -8.1061   12.4806   -4.8224 H   0  0  0  0  0  0  0  0  0  0  0  0
   -9.7669   13.1649   -4.8224 H   0  0  0  0  0  0  0  0  0  0  0  0
   -9.8281   12.7982   -1.0477 H   0  0  0  0  0  0  0  0  0  0  0  0
   -9.8570   14.0941   -2.2912 H   0  0  0  0  0  0  0  0  0  0  0  0
  -11.1242   12.8210   -2.2912 H   0  0  0  0  0  0  0  0  0  0  0  0
   -7.1034   11.7343   -2.9381 H   0  0  0  0  0  0  0  0  0  0  0  0
   -7.6846   12.7198   -1.5761 H   0  0  0  0  0  0  0  0  0  0  0  0
   -7.3951   10.4055   -0.6801 H   0  0  0  0  0  0  0  0  0  0  0  0
   -9.1399   10.6098   -0.8459 H   0  0  0  0  0  0  0  0  0  0  0  0
   -6.6002    8.5088   -3.2459 H   0  0  0  0  0  0  0  0  0  0  0  0
   -6.4898    8.7048   -1.4705 H   0  0  0  0  0  0  0  0  0  0  0  0
   -8.6765    7.2329   -1.4174 H   0  0  0  0  0  0  0  0  0  0  0  0
   -6.3833    6.2115   -0.9839 H   0  0  0  0  0  0  0  0  0  0  0  0
   -8.0377    5.4391   -3.5131 H   0  0  0  0  0  0  0  0  0  0  0  0
   -9.1906    6.7368   -3.8665 H   0  0  0  0  0  0  0  0  0  0  0  0
   -9.1100    8.2562   -7.6395 H   0  0  0  0  0  0  0  0  0  0  0  0
  -10.0144    9.8477   -9.3077 H   0  0  0  0  0  0  0  0  0  0  0  0
   -6.9966   13.1970   -9.4328 H   0  0  0  0  0  0  0  0  0  0  0  0
   -5.5782   12.7416   -8.4026 H   0  0  0  0  0  0  0  0  0  0  0  0
   -5.1137   11.2581  -10.3843 H   0  0  0  0  0  0  0  0  0  0  0  0
   -4.0680   13.0630  -11.6500 H   0  0  0  0  0  0  0  0  0  0  0  0
   -4.5415   14.0436  -10.2070 H   0  0  0  0  0  0  0  0  0  0  0  0
   -3.8204   13.7658   -8.1712 H   0  0  0  0  0  0  0  0  0  0  0  0
   -2.0730   12.8739   -6.5937 H   0  0  0  0  0  0  0  0  0  0  0  0
   -0.5821   10.2873   -9.6884 H   0  0  0  0  0  0  0  0  0  0  0  0
   -2.3292   11.1955  -11.2462 H   0  0  0  0  0  0  0  0  0  0  0  0
   -5.3981   10.4373   -7.4926 H   0  0  0  0  0  0  0  0  0  0  0  0
   -4.2498    7.1381   -3.4280 H   0  0  0  0  0  0  0  0  0  0  0  0
   -5.0353    5.5285   -3.5411 H   0  0  0  0  0  0  0  0  0  0  0  0
   -2.8774    5.5462   -4.6879 H   0  0  0  0  0  0  0  0  0  0  0  0
   -4.2806    5.3316   -5.8516 H   0  0  0  0  0  0  0  0  0  0  0  0
    0.1654    7.0633   -5.3076 H   0  0  0  0  0  0  0  0  0  0  0  0
   -0.7748    6.5034   -6.7322 H   0  0  0  0  0  0  0  0  0  0  0  0
   -0.0332    8.1394   -6.7322 H   0  0  0  0  0  0  0  0  0  0  0  0
   -3.9731    8.9268   -6.5613 H   0  0  0  0  0  0  0  0  0  0  0  0
   -4.5008    7.4572   -7.5552 H   0  0  0  0  0  0  0  0  0  0  0  0
   -8.1167   10.0150   -4.3429 H   0  0  0  0  0  0  0  0  0  0  0  0
   -9.3684    8.8199   -3.8827 H   0  0  0  0  0  0  0  0  0  0  0  0
  -10.3996   11.0250   -4.3567 H   0  0  0  0  0  0  0  0  0  0  0  0
  -10.5681   10.5936   -2.6025 H   0  0  0  0  0  0  0  0  0  0  0  0
  1  2  1  0
  2  3  1  0
  2  4  1  0
  4  5  1  0
  5  6  1  0
  6  7  1  0
  7  8  1  0
  8  9  1  0
  8 10  1  0
 10 11  1  0
 11 12  1  0
 12 13  2  0
 13 14  1  0
 14 15  2  0
 15 16  1  0
 16 17  2  0
 17 18  1  0
 18 19  1  0
 18 20  1  0
 18 21  1  0
 17 22  1  0
 22 23  1  0
 23 24  1  0
 24 25  1  0
 25 26  1  0
 26 27  2  0
 27 28  1  0
 28 29  2  0
 29 30  1  0
 29 31  1  0
 31 32  2  0
 22 33  2  0
 13 34  1  0
 34 35  2  0
 35 36  1  0
 36 37  1  0
 37 38  1  0
 38 39  1  0
 39 40  1  0
 39 41  2  0
 39 42  2  0
 38 43  1  0
  6 44  1  0
 44 45  1  0
 45  2  1  0
 35 11  1  0
 33 14  1  0
 43 34  1  0
 32 26  1  0
  1 46  1  0
  1 47  1  0
  1 48  1  0
  3 49  1  0
  3 50  1  0
  3 51  1  0
  4 52  1  0
  4 53  1  0
  5 54  1  0
  5 55  1  0
  7 56  1  0
  7 57  1  0
  8 58  1  1
  9 59  1  0
 10 60  1  0
 10 61  1  0
 15 62  1  0
 16 63  1  0
 23 64  1  0
 23 65  1  0
 24 66  1  0
 25 67  1  0
 25 68  1  0
 27 69  1  0
 28 70  1  0
 31 71  1  0
 32 72  1  0
 33 73  1  0
 36 74  1  0
 36 75  1  0
 37 76  1  0
 37 77  1  0
 40 78  1  0
 40 79  1  0
 40 80  1  0
 43 81  1  0
 43 82  1  0
 44 83  1  0
 44 84  1  0
 45 85  1  0
 45 86  1  0
M  END
$$$$
