
     RDKit          3D

 48 53  0  0  0  0  0  0  0  0999 V2000
   -2.0090   14.8920   -4.7300 C   0  0  0  0  0  0  0  0  0  0  0  0
   -3.7590   16.2990   -5.2970 C   0  0  0  0  0  0  0  0  0  0  0  0
   -3.8690   15.4740   -6.5720 C   0  0  0  0  0  0  0  0  0  0  0  0
   -2.3810   13.7810   -5.6870 C   0  0  0  0  0  0  0  0  0  0  0  0
   -2.7550   12.4380   -8.0520 C   0  0  0  0  0  0  0  0  0  0  0  0
   -5.2840    9.1870   -7.2390 C   0  0  0  0  0  0  0  0  0  0  0  0
   -3.9660   13.1870   -7.4810 C   0  0  0  0  0  0  0  0  0  0  0  0
   -3.1480   11.3260   -9.0280 C   0  0  0  0  0  0  0  0  0  0  0  0
   -6.2320    9.6510   -8.1890 C   0  0  0  0  0  0  0  0  0  0  0  0
   -5.5530   10.5030   -8.9810 C   0  0  0  0  0  0  0  0  0  0  0  0
   -6.1360   11.2490  -10.1490 C   0  0  0  0  0  0  0  0  0  0  0  0
   -7.6440   11.0100  -10.2240 C   0  0  0  0  0  0  0  0  0  0  0  0
   -7.6830    9.3480   -8.3970 C   0  0  0  0  0  0  0  0  0  0  0  0
   -5.4630    8.2510   -6.1210 C   0  0  0  0  0  0  0  0  0  0  0  0
  -10.6570    9.5030  -10.0540 C   0  0  0  0  0  0  0  0  0  0  0  0
   -6.7060    8.2060   -5.5000 C   0  0  0  0  0  0  0  0  0  0  0  0
   -6.9430    7.3510   -4.4300 C   0  0  0  0  0  0  0  0  0  0  0  0
   -5.9000    6.5310   -3.9820 C   0  0  0  0  0  0  0  0  0  0  0  0
   -4.6550    6.5720   -4.5920 C   0  0  0  0  0  0  0  0  0  0  0  0
   -4.4380    7.4320   -5.6570 C   0  0  0  0  0  0  0  0  0  0  0  0
   -8.2440    7.3570   -3.8340 C   0  0  0  0  0  0  0  0  0  0  0  0
   -9.3720    7.4460   -3.4480 C   0  0  0  0  0  0  0  0  0  0  0  0
  -10.7480    7.5590   -3.0560 C   0  0  0  0  0  0  0  0  0  0  0  0
  -11.6970    8.0970   -3.9250 C   0  0  0  0  0  0  0  0  0  0  0  0
  -13.0200    8.2040   -3.5290 C   0  0  0  0  0  0  0  0  0  0  0  0
  -13.3940    7.7710   -2.2630 C   0  0  0  0  0  0  0  0  0  0  0  0
  -12.4570    7.2290   -1.3790 C   0  0  0  0  0  0  0  0  0  0  0  0
  -11.1330    7.1280   -1.7900 C   0  0  0  0  0  0  0  0  0  0  0  0
  -15.6680    8.4530   -2.6070 C   0  0  0  0  0  0  0  0  0  0  0  0
  -12.8740    6.7560   -0.0090 C   0  0  0  0  0  0  0  0  0  0  0  0
  -14.1830    4.7110   -0.2180 C   0  0  0  0  0  0  0  0  0  0  0  0
  -14.1710    3.2110   -0.3830 C   0  0  0  0  0  0  0  0  0  0  0  0
  -14.3460    2.6310   -1.6430 C   0  0  0  0  0  0  0  0  0  0  0  0
  -14.3370    1.2550   -1.7930 C   0  0  0  0  0  0  0  0  0  0  0  0
  -14.1540    0.4380   -0.6940 C   0  0  0  0  0  0  0  0  0  0  0  0
  -13.9810    0.9990    0.5560 C   0  0  0  0  0  0  0  0  0  0  0  0
  -13.9890    2.3760    0.7110 C   0  0  0  0  0  0  0  0  0  0  0  0
   -4.2770   10.5500   -8.5270 N   0  0  0  0  0  0  0  0  0  0  0  0
   -4.0900    9.7450   -7.4380 N   0  0  0  0  0  0  0  0  0  0  0  0
   -7.9480    9.6240   -9.8220 N   0  0  0  0  0  0  0  0  0  0  0  0
   -3.7070   14.0300   -6.2770 N   0  0  0  0  0  0  0  0  0  0  0  0
  -12.8580    5.2840    0.0430 N   0  0  0  0  0  0  0  0  0  0  0  0
   -3.1560   15.5640   -4.2410 O   0  0  0  0  0  0  0  0  0  0  0  0
   -9.0440    7.4830  -10.2750 O   0  0  0  0  0  0  0  0  0  0  0  0
   -8.9850    9.2240  -12.0100 O   0  0  0  0  0  0  0  0  0  0  0  0
  -14.6730    7.8330   -1.7810 O   0  0  0  0  0  0  0  0  0  0  0  0
   -9.1310    8.8640  -10.6360 S   0  0  0  0  0  0  0  0  0  0  0  0
   -6.1480    5.4410   -2.6410 Cl  0  0  0  0  0  0  0  0  0  0  0  0
  3  2  1  0
  4  1  1  0
  7  5  1  0
  8  5  1  0
  9  6  1  0
 10  9  2  0
 11 10  1  0
 12 11  1  0
 13  9  1  0
 14  6  1  0
 16 14  2  0
 17 16  1  0
 18 17  2  0
 19 18  1  0
 20 14  1  0
 20 19  2  0
 21 17  1  0
 22 21  3  0
 23 22  1  0
 24 23  2  0
 25 24  1  0
 26 25  2  0
 27 26  1  0
 28 27  2  0
 28 23  1  0
 30 27  1  0
 32 31  1  0
 33 32  2  0
 34 33  1  0
 35 34  2  0
 36 35  1  0
 37 36  2  0
 37 32  1  0
 38 10  1  0
 38  8  1  0
 39 38  1  0
 39  6  2  0
 40 13  1  0
 40 12  1  0
 41  7  1  0
 41  4  1  0
 41  3  1  0
 42 31  1  0
 42 30  1  0
 43  2  1  0
 43  1  1  0
 46 29  1  0
 46 26  1  0
 47 45  2  0
 47 44  2  0
 47 40  1  0
 47 15  1  0
 48 18  1  0
M  END
$$$$
