
     RDKit          3D

 45 49  0  0  0  0  0  0  0  0999 V2000
   -8.5800    8.8740  -10.5250 C   0  0  0  0  0  0  0  0  0  0  0  0
   -7.7570   11.1750  -10.1240 C   0  0  0  0  0  0  0  0  0  0  0  0
   -6.2920   11.5610   -9.9620 C   0  0  0  0  0  0  0  0  0  0  0  0
   -5.6820   10.8220   -8.8110 C   0  0  0  0  0  0  0  0  0  0  0  0
   -7.7050    9.4910   -8.3080 C   0  0  0  0  0  0  0  0  0  0  0  0
   -5.3460    9.4810   -7.1000 C   0  0  0  0  0  0  0  0  0  0  0  0
   -3.3730   11.8130   -8.7560 C   0  0  0  0  0  0  0  0  0  0  0  0
   -3.2700   12.9520   -7.7510 C   0  0  1  0  0  0  0  0  0  0  0  0
   -1.8740   13.5280   -7.6780 C   0  0  0  0  0  0  0  0  0  0  0  0
   -1.8420   15.9310   -7.2960 C   0  0  0  0  0  0  0  0  0  0  0  0
   -1.4830   16.8500   -4.9800 C   0  0  0  0  0  0  0  0  0  0  0  0
   -1.1370   16.9790   -6.4670 C   0  0  0  0  0  0  0  0  0  0  0  0
   -2.7090   15.9360   -4.8210 C   0  0  0  0  0  0  0  0  0  0  0  0
   -1.6250   18.2300   -4.2690 C   0  0  0  0  0  0  0  0  0  0  0  0
   -5.4860    8.4850   -6.0260 C   0  0  0  0  0  0  0  0  0  0  0  0
   -4.5490    7.4820   -5.8140 C   0  0  0  0  0  0  0  0  0  0  0  0
   -4.7260    6.5640   -4.7980 C   0  0  0  0  0  0  0  0  0  0  0  0
   -5.8370    6.6170   -3.9660 C   0  0  0  0  0  0  0  0  0  0  0  0
   -6.7940    7.6380   -4.1870 C   0  0  0  0  0  0  0  0  0  0  0  0
   -6.6030    8.5560   -5.2130 C   0  0  0  0  0  0  0  0  0  0  0  0
   -2.5030   14.5300   -5.4580 C   0  0  0  0  0  0  0  0  0  0  0  0
   -8.1650    9.5510   -2.7650 C   0  0  0  0  0  0  0  0  0  0  0  0
   -9.3550    9.9560   -1.9120 C   0  0  0  0  0  0  0  0  0  0  0  0
   -8.4520   12.2970   -1.7970 C   0  0  0  0  0  0  0  0  0  0  0  0
   -8.6570   13.3390   -0.6320 C   0  0  0  0  0  0  0  0  0  0  0  0
   -9.8560   12.8310    0.1810 C   0  0  0  0  0  0  0  0  0  0  0  0
  -10.5270   11.7580   -0.6670 C   0  0  0  0  0  0  0  0  0  0  0  0
   -6.0020    5.5920   -2.8750 C   0  0  0  0  0  0  0  0  0  0  0  0
   -8.8830    9.3060  -11.9370 C   0  0  0  0  0  0  0  0  0  0  0  0
   -2.7460   19.0570   -4.8660 C   0  0  0  0  0  0  0  0  0  0  0  0
   -0.3190   19.0100   -4.3110 C   0  0  0  0  0  0  0  0  0  0  0  0
   -6.3100    9.8960   -8.0620 C   0  0  0  0  0  0  0  0  0  0  0  0
   -7.1460    4.9070   -2.9820 F   0  0  0  0  0  0  0  0  0  0  0  0
   -5.0590    4.7130   -2.8760 F   0  0  0  0  0  0  0  0  0  0  0  0
   -6.0060    6.1050   -1.6720 F   0  0  0  0  0  0  0  0  0  0  0  0
   -4.1900   10.1290   -7.2560 N   0  0  0  0  0  0  0  0  0  0  0  0
   -4.4220   10.9460   -8.3270 N   0  0  0  0  0  0  0  0  0  0  0  0
   -1.6990   14.6080   -6.6890 N   0  0  0  0  0  0  0  0  0  0  0  0
   -8.0430    9.7930   -9.6840 N   0  0  0  0  0  0  0  0  0  0  0  0
   -9.4300   11.2440   -1.4950 N   0  0  0  0  0  0  0  0  0  0  0  0
   -4.2820   13.9280   -8.0460 O   0  0  0  0  0  0  0  0  0  0  0  0
   -8.8100    7.7330  -10.1440 O   0  0  0  0  0  0  0  0  0  0  0  0
  -10.2100    9.1270   -1.6230 O   0  0  0  0  0  0  0  0  0  0  0  0
   -1.9650   18.0100   -2.8850 O   0  0  0  0  0  0  0  0  0  0  0  0
   -8.2410    7.7970   -3.1920 S   0  0  0  0  0  0  0  0  0  0  0  0
  3  2  1  0
  4  3  1  0
  8  7  1  0
  9  8  1  0
 12 10  1  0
 12 11  1  0
 13 11  1  0
 14 11  1  0
 15  6  1  0
 16 15  2  0
 17 16  1  0
 18 17  2  0
 19 18  1  0
 20 15  1  0
 20 19  2  0
 21 13  1  0
 23 22  1  0
 25 24  1  0
 26 25  1  0
 27 26  1  0
 28 18  1  0
 29  1  1  0
 30 14  1  0
 31 14  1  0
 32  5  1  0
 32  4  2  0
 32  6  1  0
 33 28  1  0
 34 28  1  0
 35 28  1  0
 36  6  2  0
 37  4  1  0
 37 36  1  0
 37  7  1  0
 38 21  1  0
 38 10  1  0
 38  9  1  0
 39  5  1  0
 39  1  1  0
 39  2  1  0
 40 23  1  0
 40 27  1  0
 40 24  1  0
  8 41  1  6
 42  1  2  0
 43 23  2  0
 44 14  1  0
 45 22  1  0
 45 19  1  0
M  CHG  1  38   1
M  END
$$$$
