
     RDKit          3D

 43 48  0  0  0  0  0  0  0  0999 V2000
   -5.6560    4.4690   -3.0900 F   0  0  0  0  0  0  0  0  0  0  0  0
   -6.2340    5.6020   -2.7400 C   0  0  0  0  0  0  0  0  0  0  0  0
   -7.5150    5.3740   -2.5200 F   0  0  0  0  0  0  0  0  0  0  0  0
   -5.6850    6.0550   -1.6260 F   0  0  0  0  0  0  0  0  0  0  0  0
   -6.0610    6.6050   -3.8460 C   0  0  0  0  0  0  0  0  0  0  0  0
   -7.1200    7.4340   -4.2150 C   0  0  0  0  0  0  0  0  0  0  0  0
   -6.9540    8.3610   -5.2410 C   0  0  0  0  0  0  0  0  0  0  0  0
   -4.8380    6.7030   -4.5090 C   0  0  0  0  0  0  0  0  0  0  0  0
   -4.6720    7.6280   -5.5380 C   0  0  0  0  0  0  0  0  0  0  0  0
   -5.7330    8.4550   -5.9110 C   0  0  0  0  0  0  0  0  0  0  0  0
   -5.5400    9.4550   -7.0040 C   0  0  0  0  0  0  0  0  0  0  0  0
   -6.4470    9.7160   -8.0190 C   0  0  0  0  0  0  0  0  0  0  0  0
   -7.8010    9.1490   -8.3630 C   0  0  0  0  0  0  0  0  0  0  0  0
   -8.2490    9.7470   -9.6270 N   0  0  0  0  0  0  0  0  0  0  0  0
   -9.1020    8.8940  -10.5690 S   0  0  0  0  0  0  0  0  0  0  0  0
  -10.4850    9.2240  -10.3670 O   0  0  0  0  0  0  0  0  0  0  0  0
   -8.9090    7.4960  -10.2960 O   0  0  0  0  0  0  0  0  0  0  0  0
   -8.7270    9.1640  -12.1600 C   0  0  0  0  0  0  0  0  0  0  0  0
   -5.7870   10.7740   -8.8090 C   0  0  0  0  0  0  0  0  0  0  0  0
   -6.4190   11.3810  -10.0380 C   0  0  0  0  0  0  0  0  0  0  0  0
   -7.9350   11.1450   -9.9740 C   0  0  0  0  0  0  0  0  0  0  0  0
   -4.6100   11.0150   -8.2010 N   0  0  0  0  0  0  0  0  0  0  0  0
   -4.4320   10.2050   -7.0650 N   0  0  0  0  0  0  0  0  0  0  0  0
   -3.4990   11.9350   -8.4590 C   0  0  0  0  0  0  0  0  0  0  0  0
   -3.7130   13.2050   -7.6350 C   0  0  2  0  0  0  0  0  0  0  0  0
   -4.7360   14.0420   -8.2830 O   0  0  0  0  0  0  0  0  0  0  0  0
   -2.4080   13.9920   -7.5040 C   0  0  0  0  0  0  0  0  0  0  0  0
   -2.5600   14.8600   -6.3380 N   0  0  0  0  0  0  0  0  0  0  0  0
   -2.4010   14.3000   -4.9960 C   0  0  0  0  0  0  0  0  0  0  0  0
   -2.3240   15.4740   -4.0210 C   0  0  0  0  0  0  0  0  0  0  0  0
   -1.3370   16.5410   -4.5020 C   0  0  0  0  0  0  0  0  0  0  0  0
   -1.7650   17.1040   -5.8610 C   0  0  0  0  0  0  0  0  0  0  0  0
   -2.8710   16.2790   -6.5290 C   0  0  0  0  0  0  0  0  0  0  0  0
   -1.1850   17.6300   -3.4680 C   0  0  0  0  0  0  0  0  0  0  0  0
    0.0450   17.9910   -2.8880 C   0  0  0  0  0  0  0  0  0  0  0  0
   -2.1930   18.4540   -2.9050 C   0  0  0  0  0  0  0  0  0  0  0  0
   -1.5640   19.3100   -1.9860 C   0  0  0  0  0  0  0  0  0  0  0  0
   -2.3140   20.2490   -1.2650 C   0  0  0  0  0  0  0  0  0  0  0  0
   -3.7000   20.3120   -1.4820 C   0  0  0  0  0  0  0  0  0  0  0  0
   -0.2500   18.9890   -2.0220 N   0  0  0  0  0  0  0  0  0  0  0  0
   -3.5880   18.5780   -3.0670 C   0  0  0  0  0  0  0  0  0  0  0  0
   -4.2970   19.4870   -2.3670 N   0  0  0  0  0  0  0  0  0  0  0  0
   -5.6830   19.5760   -2.5610 O   0  0  0  0  0  0  0  0  0  0  0  0
  2  1  1  0
  3  2  1  0
  4  2  1  0
  5  2  1  0
  6  5  2  0
  7  6  1  0
  8  5  1  0
  9  8  2  0
 10  7  2  0
 10  9  1  0
 11 10  1  0
 12 11  1  0
 13 12  1  0
 14 13  1  0
 15 14  1  0
 16 15  2  0
 17 15  2  0
 18 15  1  0
 19 12  2  0
 20 19  1  0
 21 14  1  0
 21 20  1  0
 22 19  1  0
 23 11  2  0
 23 22  1  0
 24 22  1  0
 25 24  1  0
 25 26  1  6
 27 25  1  0
 28 27  1  0
 29 28  1  0
 30 29  1  0
 31 30  1  0
 32 31  1  0
 33 28  1  0
 33 32  1  0
 34 31  1  0
 35 34  2  0
 36 34  1  0
 37 36  2  0
 38 37  1  0
 39 38  2  0
 40 37  1  0
 40 35  1  0
 41 36  1  0
 42 41  2  0
 42 39  1  0
 43 42  1  0
M  CHG  3  28   1  42   1  43  -1
M  END
$$$$
