
     RDKit          3D

 46 52  0  0  0  0  0  0  0  0999 V2000
   -0.8280   17.8820   -3.5970 C   0  0  0  0  0  0  0  0  0  0  0  0
   -3.0780   18.2960   -3.4350 C   0  0  0  0  0  0  0  0  0  0  0  0
    0.4620   17.4200   -3.8990 C   0  0  0  0  0  0  0  0  0  0  0  0
   -2.5260   16.4710   -5.0630 C   0  0  0  0  0  0  0  0  0  0  0  0
   -2.6790   15.1140   -4.3520 C   0  0  0  0  0  0  0  0  0  0  0  0
   -2.8470   13.9900   -5.3580 C   0  0  0  0  0  0  0  0  0  0  0  0
   -2.1050   15.2710   -7.2480 C   0  0  0  0  0  0  0  0  0  0  0  0
   -1.6090   16.3580   -6.2900 C   0  0  0  0  0  0  0  0  0  0  0  0
    1.5510   18.0020   -3.2510 C   0  0  0  0  0  0  0  0  0  0  0  0
   -3.8670   13.5280   -7.5720 C   0  0  0  0  0  0  0  0  0  0  0  0
   -2.9940   12.3590   -7.9570 C   0  0  0  0  0  0  0  0  0  0  0  0
   -3.6770   11.5260   -9.0160 C   0  0  0  0  0  0  0  0  0  0  0  0
    1.3640   19.0250   -2.3210 C   0  0  0  0  0  0  0  0  0  0  0  0
   -5.7230    9.3300   -7.1780 C   0  0  0  0  0  0  0  0  0  0  0  0
   -6.6990    9.7610   -8.1110 C   0  0  0  0  0  0  0  0  0  0  0  0
   -6.0590   10.6250   -8.9230 C   0  0  0  0  0  0  0  0  0  0  0  0
    0.0750   19.4890   -2.0150 C   0  0  0  0  0  0  0  0  0  0  0  0
   -6.7210   11.3330  -10.0840 C   0  0  0  0  0  0  0  0  0  0  0  0
   -8.1670   10.7890  -10.2830 C   0  0  0  0  0  0  0  0  0  0  0  0
   -8.1280    9.4250   -8.3350 C   0  0  0  0  0  0  0  0  0  0  0  0
   -8.4420    8.2160  -10.4240 C   0  0  0  0  0  0  0  0  0  0  0  0
   -1.0130   18.9050   -2.6620 C   0  0  0  0  0  0  0  0  0  0  0  0
   -8.5590    8.1170  -11.9230 C   0  0  0  0  0  0  0  0  0  0  0  0
   -9.3310    7.5120  -13.8310 C   0  0  0  0  0  0  0  0  0  0  0  0
   -7.7350    8.6330  -12.8760 C   0  0  0  0  0  0  0  0  0  0  0  0
   -5.8360    8.4120   -6.0680 C   0  0  0  0  0  0  0  0  0  0  0  0
   -7.0410    8.2740   -5.3730 C   0  0  0  0  0  0  0  0  0  0  0  0
   -7.1380    7.4030   -4.3030 C   0  0  0  0  0  0  0  0  0  0  0  0
   -6.0310    6.6520   -3.8890 C   0  0  0  0  0  0  0  0  0  0  0  0
   -4.8280    6.7910   -4.5830 C   0  0  0  0  0  0  0  0  0  0  0  0
   -4.7280    7.6610   -5.6540 C   0  0  0  0  0  0  0  0  0  0  0  0
   -6.1290    5.7000   -2.7390 C   0  0  0  0  0  0  0  0  0  0  0  0
   -3.0250   20.1540   -1.7050 C   0  0  0  0  0  0  0  0  0  0  0  0
   -5.5010    6.1160   -1.6440 F   0  0  0  0  0  0  0  0  0  0  0  0
   -5.5490    4.5810   -3.0050 F   0  0  0  0  0  0  0  0  0  0  0  0
   -7.3970    5.4130   -2.3970 F   0  0  0  0  0  0  0  0  0  0  0  0
   -2.1170   17.5210   -4.0700 N   0  0  0  0  0  0  0  0  0  0  0  0
   -2.3840   19.1460   -2.5730 N   0  0  0  0  0  0  0  0  0  0  0  0
   -3.2310   14.5220   -6.6650 N   0  0  0  0  0  0  0  0  0  0  0  0
   -4.7670   10.7240   -8.4910 N   0  0  0  0  0  0  0  0  0  0  0  0
   -4.5360    9.9290   -7.4080 N   0  0  0  0  0  0  0  0  0  0  0  0
   -8.2880    9.3990   -9.7840 N   0  0  0  0  0  0  0  0  0  0  0  0
   -9.5600    7.3960  -12.5330 N   0  0  0  0  0  0  0  0  0  0  0  0
   -8.2480    8.2450  -14.0800 N   0  0  0  0  0  0  0  0  0  0  0  0
   -8.4820    7.1570   -9.8160 O   0  0  0  0  0  0  0  0  0  0  0  0
   -4.2850   18.2440   -3.6030 O   0  0  0  0  0  0  0  0  0  0  0  0
  3  1  2  0
  5  4  1  0
  6  5  1  0
  8  7  1  0
  8  4  1  0
  9  3  1  0
 11 10  1  0
 12 11  1  0
 13  9  2  0
 15 14  1  0
 16 15  2  0
 17 13  1  0
 18 16  1  0
 19 18  1  0
 20 15  1  0
 22 17  2  0
 22  1  1  0
 23 21  1  0
 25 23  2  0
 26 14  1  0
 27 26  2  0
 28 27  1  0
 29 28  2  0
 30 29  1  0
 31 26  1  0
 31 30  2  0
 32 29  1  0
 34 32  1  0
 35 32  1  0
 36 32  1  0
 37  4  1  0
 37  2  1  0
 37  1  1  0
 38 33  1  0
 38 22  1  0
 38  2  1  0
 39 10  1  0
 39  7  1  0
 39  6  1  0
 40 16  1  0
 40 12  1  0
 41 14  2  0
 41 40  1  0
 42 21  1  0
 42 20  1  0
 42 19  1  0
 43 24  2  0
 43 23  1  0
 44 25  1  0
 44 24  1  0
 45 21  2  0
 46  2  2  0
M  END
$$$$
