
     RDKit          3D

 49 55  0  0  0  0  0  0  0  0999 V2000
   -2.7440   14.0520   -5.1570 C   0  0  0  0  0  0  0  0  0  0  0  0
   -2.4110   15.2330   -4.2640 C   0  0  0  0  0  0  0  0  0  0  0  0
   -3.6360   13.3740   -7.3450 C   0  0  0  0  0  0  0  0  0  0  0  0
   -5.1330    9.1650   -6.9620 C   0  0  0  0  0  0  0  0  0  0  0  0
   -3.9720   16.5710   -5.3600 C   0  0  0  0  0  0  0  0  0  0  0  0
   -4.3600   15.4380   -6.2860 C   0  0  0  0  0  0  0  0  0  0  0  0
   -6.1050    9.7070   -7.8300 C   0  0  0  0  0  0  0  0  0  0  0  0
   -7.5510   11.2330   -9.6890 C   0  0  0  0  0  0  0  0  0  0  0  0
   -2.5220   12.4280   -7.7490 C   0  0  0  0  0  0  0  0  0  0  0  0
   -2.9900   11.3670   -8.7310 C   0  0  0  0  0  0  0  0  0  0  0  0
   -5.4320   10.6000   -8.6080 C   0  0  0  0  0  0  0  0  0  0  0  0
   -6.0400   11.4340   -9.6930 C   0  0  0  0  0  0  0  0  0  0  0  0
   -7.5280    9.4580   -7.9810 C   0  0  0  0  0  0  0  0  0  0  0  0
   -5.2680    8.1520   -5.8980 C   0  0  0  0  0  0  0  0  0  0  0  0
   -6.2930    8.2380   -4.9530 C   0  0  0  0  0  0  0  0  0  0  0  0
   -6.4180    7.2810   -3.9440 C   0  0  0  0  0  0  0  0  0  0  0  0
   -5.4900    6.2400   -3.9060 C   0  0  0  0  0  0  0  0  0  0  0  0
   -4.4720    6.1480   -4.8350 C   0  0  0  0  0  0  0  0  0  0  0  0
   -4.3610    7.0990   -5.8250 C   0  0  0  0  0  0  0  0  0  0  0  0
  -10.5690    9.7340   -9.3520 C   0  0  0  0  0  0  0  0  0  0  0  0
   -7.4800    7.3820   -2.9860 C   0  0  0  0  0  0  0  0  0  0  0  0
   -8.3120    7.3960   -2.1290 C   0  0  0  0  0  0  0  0  0  0  0  0
   -9.2440    7.3930   -1.0470 C   0  0  0  0  0  0  0  0  0  0  0  0
  -10.4230    8.0350   -1.1460 C   0  0  0  0  0  0  0  0  0  0  0  0
  -11.3600    8.0290   -0.0870 C   0  0  0  0  0  0  0  0  0  0  0  0
  -10.9460    7.3200    1.0390 C   0  0  0  0  0  0  0  0  0  0  0  0
   -9.7340    6.6470    1.1700 C   0  0  0  0  0  0  0  0  0  0  0  0
   -8.8940    6.6800    0.1490 C   0  0  0  0  0  0  0  0  0  0  0  0
  -11.8400    7.2110    2.2810 C   0  0  0  0  0  0  0  0  0  0  0  0
  -13.2800    7.6290    1.9080 C   0  0  1  0  0  0  0  0  0  0  0  0
  -12.6610    8.7460   -0.2170 C   0  0  0  0  0  0  0  0  0  0  0  0
  -14.0120    8.0200    3.2000 C   0  0  0  0  0  0  0  0  0  0  0  0
  -15.2720    7.3570    5.2110 C   0  0  0  0  0  0  0  0  0  0  0  0
  -16.3970    6.3480    5.5140 C   0  0  0  0  0  0  0  0  0  0  0  0
  -15.8690    4.9020    5.5930 C   0  0  0  0  0  0  0  0  0  0  0  0
  -14.5590    4.7520    4.8610 C   0  0  0  0  0  0  0  0  0  0  0  0
  -14.5240    5.6130    3.6230 C   0  0  0  0  0  0  0  0  0  0  0  0
   -4.1390   10.5870   -8.2150 N   0  0  0  0  0  0  0  0  0  0  0  0
   -3.9290    9.7010   -7.1930 N   0  0  0  0  0  0  0  0  0  0  0  0
   -3.2250   14.5170   -6.4740 N   0  0  0  0  0  0  0  0  0  0  0  0
   -7.8610    9.8260   -9.3680 N   0  0  0  0  0  0  0  0  0  0  0  0
  -13.2720    8.8770    1.1290 N   0  0  0  0  0  0  0  0  0  0  0  0
  -14.5590    7.0440    3.9540 N   0  0  0  0  0  0  0  0  0  0  0  0
   -9.0160    7.7590   -9.9540 O   0  0  0  0  0  0  0  0  0  0  0  0
   -9.0990    9.6810  -11.4760 O   0  0  0  0  0  0  0  0  0  0  0  0
   -3.5280   16.0880   -4.0910 O   0  0  0  0  0  0  0  0  0  0  0  0
  -14.0810    9.1900    3.5250 O   0  0  0  0  0  0  0  0  0  0  0  0
   -9.1200    9.1690  -10.1460 S   0  0  0  0  0  0  0  0  0  0  0  0
   -5.6090    5.0390   -2.6710 Cl  0  0  0  0  0  0  0  0  0  0  0  0
  2  1  1  0
  6  5  1  0
  7  4  1  0
  9  3  1  0
 10  9  1  0
 11  7  2  0
 12  8  1  0
 12 11  1  0
 13  7  1  0
 14  4  1  0
 15 14  2  0
 16 15  1  0
 17 16  2  0
 18 17  1  0
 19 14  1  0
 19 18  2  0
 21 16  1  0
 22 21  3  0
 23 22  1  0
 24 23  2  0
 25 24  1  0
 26 25  2  0
 27 26  1  0
 28 27  2  0
 28 23  1  0
 29 26  1  0
 30 29  1  0
 31 25  1  0
 30 32  1  1
 34 33  1  0
 35 34  1  0
 36 35  1  0
 37 36  1  0
 38 11  1  0
 38 10  1  0
 39 38  1  0
 39  4  2  0
 40  6  1  0
 40  3  1  0
 40  1  1  0
 41 13  1  0
 41  8  1  0
 42 31  1  0
 42 30  1  0
 43 37  1  0
 43 33  1  0
 43 32  1  0
 46  2  1  0
 46  5  1  0
 47 32  2  0
 48 45  2  0
 48 44  2  0
 48 41  1  0
 48 20  1  0
 49 17  1  0
M  END
$$$$
