
     RDKit          3D

 46 51  0  0  0  0  0  0  0  0999 V2000
   -3.4470   19.7570   -1.9710 C   0  0  0  0  0  0  0  0  0  0  0  0
   -2.6740   18.9960   -2.9120 N   0  0  0  0  0  0  0  0  0  0  0  0
   -3.1220   17.8480   -3.5320 C   0  0  0  0  0  0  0  0  0  0  0  0
   -4.2000   17.3150   -3.3830 O   0  0  0  0  0  0  0  0  0  0  0  0
   -2.0870   17.4450   -4.3600 N   0  0  0  0  0  0  0  0  0  0  0  0
   -1.0150   18.3210   -4.2440 C   0  0  0  0  0  0  0  0  0  0  0  0
    0.2160   18.3120   -4.8700 C   0  0  0  0  0  0  0  0  0  0  0  0
    1.0910   19.3240   -4.5670 C   0  0  0  0  0  0  0  0  0  0  0  0
    2.6380   19.3100   -5.3580 Cl  0  0  0  0  0  0  0  0  0  0  0  0
    0.7680   20.3360   -3.6640 C   0  0  0  0  0  0  0  0  0  0  0  0
   -0.4860   20.3310   -3.0360 C   0  0  0  0  0  0  0  0  0  0  0  0
   -1.3740   19.3020   -3.3420 C   0  0  0  0  0  0  0  0  0  0  0  0
   -2.1370   16.2360   -5.1960 C   0  0  0  0  0  0  0  0  0  0  0  0
   -2.2640   14.9550   -4.3790 C   0  0  0  0  0  0  0  0  0  0  0  0
   -2.1930   13.7300   -5.2910 C   0  0  0  0  0  0  0  0  0  0  0  0
   -1.9350   14.1280   -6.6850 N   0  0  0  0  0  0  0  0  0  0  0  0
   -1.5840   12.9710   -7.5630 C   0  0  0  0  0  0  0  0  0  0  0  0
   -2.6820   12.4940   -8.5040 C   0  0  0  0  0  0  0  0  0  0  0  0
   -2.6380   11.0100   -8.7880 C   0  0  0  0  0  0  0  0  0  0  0  0
   -3.8870   10.3710   -8.3930 N   0  0  0  0  0  0  0  0  0  0  0  0
   -4.9350   10.6730   -9.2070 N   0  0  0  0  0  0  0  0  0  0  0  0
   -6.0730   10.1300   -8.8870 C   0  0  0  0  0  0  0  0  0  0  0  0
   -6.2980    9.2920   -7.7980 C   0  0  0  0  0  0  0  0  0  0  0  0
   -5.2460    8.9930   -6.9710 C   0  0  0  0  0  0  0  0  0  0  0  0
   -3.9340    9.5550   -7.2550 C   0  0  0  0  0  0  0  0  0  0  0  0
   -2.9260    9.3630   -6.5960 O   0  0  0  0  0  0  0  0  0  0  0  0
   -5.4440    8.1140   -5.8010 C   0  0  0  0  0  0  0  0  0  0  0  0
   -4.5260    7.1200   -5.4740 C   0  0  0  0  0  0  0  0  0  0  0  0
   -4.7480    6.3050   -4.3850 C   0  0  0  0  0  0  0  0  0  0  0  0
   -5.8860    6.4790   -3.6210 C   0  0  0  0  0  0  0  0  0  0  0  0
   -6.1040    5.4370   -2.2820 Cl  0  0  0  0  0  0  0  0  0  0  0  0
   -6.8320    7.4590   -3.9090 C   0  0  0  0  0  0  0  0  0  0  0  0
   -6.5870    8.2670   -5.0120 C   0  0  0  0  0  0  0  0  0  0  0  0
   -8.0780    7.6590   -3.0810 C   0  0  0  0  0  0  0  0  0  0  0  0
   -8.0820    8.9260   -2.3670 N   0  0  0  0  0  0  0  0  0  0  0  0
   -9.1990    9.6390   -2.1500 C   0  0  0  0  0  0  0  0  0  0  0  0
  -10.3070    9.2670   -2.5270 O   0  0  0  0  0  0  0  0  0  0  0  0
   -9.0490   10.9180   -1.3900 C   0  0  0  0  0  0  0  0  0  0  0  0
   -7.8550   11.6370   -1.3540 C   0  0  0  0  0  0  0  0  0  0  0  0
   -7.7490   12.8090   -0.6300 C   0  0  0  0  0  0  0  0  0  0  0  0
   -8.8420   13.2490    0.0530 C   0  0  0  0  0  0  0  0  0  0  0  0
   -8.7380   14.3960    0.7670 F   0  0  0  0  0  0  0  0  0  0  0  0
  -10.0360   12.5810    0.0480 C   0  0  0  0  0  0  0  0  0  0  0  0
  -10.1390   11.4100   -0.6820 C   0  0  0  0  0  0  0  0  0  0  0  0
   -3.0450   15.0140   -7.1780 C   0  0  0  0  0  0  0  0  0  0  0  0
   -3.1530   16.2830   -6.3290 C   0  0  0  0  0  0  0  0  0  0  0  0
  2  1  1  0
  3  2  1  0
  4  3  2  0
  5  3  1  0
  6  5  1  0
  7  6  2  0
  8  7  1  0
  9  8  1  0
 10  8  2  0
 11 10  1  0
 12 11  2  0
 12  6  1  0
 12  2  1  0
 13  5  1  0
 14 13  1  0
 15 14  1  0
 16 15  1  0
 17 16  1  0
 18 17  1  0
 19 18  1  0
 20 19  1  0
 21 20  1  0
 22 21  2  0
 23 22  1  0
 24 23  2  0
 25 24  1  0
 25 20  1  0
 26 25  2  0
 27 24  1  0
 28 27  2  0
 29 28  1  0
 30 29  2  0
 31 30  1  0
 32 30  1  0
 33 32  2  0
 33 27  1  0
 34 32  1  0
 35 34  1  0
 36 35  1  0
 37 36  2  0
 38 36  1  0
 39 38  2  0
 40 39  1  0
 41 40  2  0
 42 41  1  0
 43 41  1  0
 44 43  2  0
 44 38  1  0
 45 16  1  0
 46 45  1  0
 46 13  1  0
M  END
$$$$
