
     RDKit          3D

 43 48  0  0  0  0  0  0  0  0999 V2000
   -5.5760    9.4160   -7.2820 C   0  0  0  0  0  0  0  0  0  0  0  0
   -3.4440   11.6300   -9.0740 C   0  0  0  0  0  0  0  0  0  0  0  0
   -3.4060   13.0660   -8.5490 C   0  0  2  0  0  0  0  0  0  0  0  0
   -7.9550    9.4650   -8.4430 C   0  0  0  0  0  0  0  0  0  0  0  0
   -6.5280    9.8320   -8.2370 C   0  0  0  0  0  0  0  0  0  0  0  0
  -10.9200    9.6010  -10.2490 C   0  0  0  0  0  0  0  0  0  0  0  0
   -5.8750   10.7130   -9.0380 C   0  0  0  0  0  0  0  0  0  0  0  0
   -6.4940   11.4210  -10.2190 C   0  0  0  0  0  0  0  0  0  0  0  0
   -8.0040   11.1020  -10.2730 C   0  0  0  0  0  0  0  0  0  0  0  0
   -3.5050   13.1600   -7.0300 C   0  0  0  0  0  0  0  0  0  0  0  0
   -2.5150   14.4830   -5.1280 C   0  0  0  0  0  0  0  0  0  0  0  0
   -3.5550   15.1450   -4.2080 C   0  0  0  0  0  0  0  0  0  0  0  0
   -3.8710   16.6050   -4.6220 C   0  0  0  0  0  0  0  0  0  0  0  0
   -3.3520   16.8580   -6.0100 C   0  0  0  0  0  0  0  0  0  0  0  0
   -3.7530   15.6640   -6.8790 C   0  0  0  0  0  0  0  0  0  0  0  0
   -3.4650   17.6430   -3.5890 C   0  0  0  0  0  0  0  0  0  0  0  0
   -4.3100   18.4770   -2.9050 C   0  0  0  0  0  0  0  0  0  0  0  0
   -2.2620   18.9810   -2.1670 C   0  0  0  0  0  0  0  0  0  0  0  0
   -1.1530   19.5160   -1.5170 C   0  0  0  0  0  0  0  0  0  0  0  0
    0.0840   19.0070   -1.8410 C   0  0  0  0  0  0  0  0  0  0  0  0
   -0.8780   17.4760   -3.4170 C   0  0  0  0  0  0  0  0  0  0  0  0
   -2.1370   17.9510   -3.1270 C   0  0  0  0  0  0  0  0  0  0  0  0
   -5.7360    8.4730   -6.1480 C   0  0  0  0  0  0  0  0  0  0  0  0
   -4.6610    7.7160   -5.6840 C   0  0  0  0  0  0  0  0  0  0  0  0
   -4.8250    6.8480   -4.6230 C   0  0  0  0  0  0  0  0  0  0  0  0
   -6.0530    6.7130   -3.9890 C   0  0  0  0  0  0  0  0  0  0  0  0
   -7.1260    7.4690   -4.4480 C   0  0  0  0  0  0  0  0  0  0  0  0
   -6.9710    8.3360   -5.5120 C   0  0  0  0  0  0  0  0  0  0  0  0
   -6.2110    5.7770   -2.8390 C   0  0  0  0  0  0  0  0  0  0  0  0
   -5.5170    4.6680   -2.9740 F   0  0  0  0  0  0  0  0  0  0  0  0
   -5.7490    6.2520   -1.7710 F   0  0  0  0  0  0  0  0  0  0  0  0
   -7.4920    5.4460   -2.5990 F   0  0  0  0  0  0  0  0  0  0  0  0
   -4.3980   10.0170   -7.4790 N   0  0  0  0  0  0  0  0  0  0  0  0
   -4.6030   10.8190   -8.5750 N   0  0  0  0  0  0  0  0  0  0  0  0
   -2.9600   14.4540   -6.5410 N   0  0  0  0  0  0  0  0  0  0  0  0
    0.1800   18.0140   -2.7700 N   0  0  0  0  0  0  0  0  0  0  0  0
   -3.5970   19.2810   -2.0530 N   0  0  0  0  0  0  0  0  0  0  0  0
   -8.2370    9.6810   -9.8340 N   0  0  0  0  0  0  0  0  0  0  0  0
    1.4250   17.5370   -3.0660 O   0  0  0  0  0  0  0  0  0  0  0  0
   -9.0960    8.9770  -12.0140 O   0  0  0  0  0  0  0  0  0  0  0  0
   -9.3780    7.5240  -10.0640 O   0  0  0  0  0  0  0  0  0  0  0  0
   -4.5350   13.7570   -9.0830 O   0  0  0  0  0  0  0  0  0  0  0  0
   -9.3760    8.8400  -10.6200 S   0  0  0  0  0  0  0  0  0  0  0  0
  3  2  1  0
  5  4  1  0
  5  1  1  0
  7  5  2  0
  8  7  1  0
  9  8  1  0
 10  3  1  0
 12 11  1  0
 13 12  1  0
 14 13  1  0
 15 14  1  0
 16 13  1  0
 17 16  2  0
 19 18  2  0
 20 19  1  0
 22 21  2  0
 22 18  1  0
 22 16  1  0
 23  1  1  0
 24 23  2  0
 25 24  1  0
 26 25  2  0
 27 26  1  0
 28 23  1  0
 28 27  2  0
 29 26  1  0
 30 29  1  0
 31 29  1  0
 32 29  1  0
 33  1  2  0
 34  7  1  0
 34 33  1  0
 34  2  1  0
 35 15  1  0
 35 10  1  0
 35 11  1  0
 36 21  1  0
 36 20  2  0
 37 18  1  0
 37 17  1  0
 38  4  1  0
 38  9  1  0
 39 36  1  0
  3 42  1  6
 43  6  1  0
 43 40  2  0
 43 41  2  0
 43 38  1  0
M  CHG  3  35   1  36   1  39  -1
M  END
$$$$
