
     RDKit          3D

 42 46  0  0  0  0  0  0  0  0999 V2000
   -2.8360   12.8610   -6.9610 C   0  0  0  0  0  0  0  0  0  0  0  0
   -2.5390   12.6530   -8.4230 C   0  0  0  0  0  0  0  0  0  0  0  0
   -2.7120   11.2230   -8.9190 C   0  0  0  0  0  0  0  0  0  0  0  0
   -4.9360    9.2400   -6.9960 C   0  0  0  0  0  0  0  0  0  0  0  0
   -5.8950    9.8340   -7.8530 C   0  0  0  0  0  0  0  0  0  0  0  0
   -5.1900   10.6450   -8.6810 C   0  0  0  0  0  0  0  0  0  0  0  0
   -5.7860   11.4870   -9.7670 C   0  0  0  0  0  0  0  0  0  0  0  0
   -7.3090   11.4950   -9.5960 C   0  0  0  0  0  0  0  0  0  0  0  0
   -7.3670    9.6860   -7.9480 C   0  0  0  0  0  0  0  0  0  0  0  0
   -2.7600   14.3400   -5.0530 C   0  0  0  0  0  0  0  0  0  0  0  0
   -1.3540   14.7610   -6.9220 C   0  0  0  0  0  0  0  0  0  0  0  0
   -5.1380    8.2730   -5.8920 C   0  0  0  0  0  0  0  0  0  0  0  0
   -1.2290   16.1980   -6.4910 C   0  0  0  0  0  0  0  0  0  0  0  0
   -4.1480    7.3670   -5.5280 C   0  0  0  0  0  0  0  0  0  0  0  0
   -4.3620    6.4750   -4.4900 C   0  0  0  0  0  0  0  0  0  0  0  0
   -5.5640    6.4850   -3.8110 C   0  0  0  0  0  0  0  0  0  0  0  0
   -6.5540    7.3740   -4.1590 C   0  0  0  0  0  0  0  0  0  0  0  0
   -6.3410    8.2690   -5.1970 C   0  0  0  0  0  0  0  0  0  0  0  0
   -8.5730    9.3820  -10.0620 C   0  0  0  0  0  0  0  0  0  0  0  0
   -8.9750    9.9420  -11.3990 C   0  0  0  0  0  0  0  0  0  0  0  0
   -2.5960   15.7870   -4.6230 C   0  0  0  0  0  0  0  0  0  0  0  0
  -10.4250   10.4200  -11.4780 C   0  0  0  0  0  0  0  0  0  0  0  0
  -10.7380   11.4310  -10.3920 C   0  0  0  0  0  0  0  0  0  0  0  0
  -12.1860   11.9040  -10.4670 C   0  0  0  0  0  0  0  0  0  0  0  0
  -12.1950   11.4890  -12.8960 C   0  0  0  0  0  0  0  0  0  0  0  0
  -10.7450   11.0210  -12.8170 C   0  0  0  0  0  0  0  0  0  0  0  0
  -12.9080   13.7060  -12.0040 C   0  0  0  0  0  0  0  0  0  0  0  0
  -13.7970   15.6130  -10.6870 C   0  0  0  0  0  0  0  0  0  0  0  0
  -13.8510   15.8310   -9.1890 C   0  0  0  0  0  0  0  0  0  0  0  0
  -13.0660   16.7560  -11.3760 C   0  0  0  0  0  0  0  0  0  0  0  0
  -15.1950   15.4140  -11.2600 C   0  0  0  0  0  0  0  0  0  0  0  0
   -8.3970    7.4420   -3.1590 I   0  0  0  0  0  0  0  0  0  0  0  0
   -3.8840   10.5480   -8.3360 N   0  0  0  0  0  0  0  0  0  0  0  0
   -2.6500   14.2320   -6.5120 N   0  0  0  0  0  0  0  0  0  0  0  0
   -3.6960    9.6720   -7.2780 N   0  0  0  0  0  0  0  0  0  0  0  0
   -7.8020   10.1510   -9.2550 N   0  0  0  0  0  0  0  0  0  0  0  0
  -12.5150   12.4250  -11.8060 N   0  0  0  0  0  0  0  0  0  0  0  0
   -1.3450   16.3360   -5.0710 O   0  0  0  0  0  0  0  0  0  0  0  0
   -8.9500    8.2660   -9.7260 O   0  0  0  0  0  0  0  0  0  0  0  0
  -13.1230   14.1820  -13.0930 O   0  0  0  0  0  0  0  0  0  0  0  0
  -13.0110   14.3460  -10.8300 O   0  0  0  0  0  0  0  0  0  0  0  0
   -5.7940    5.3460   -2.5110 Cl  0  0  0  0  0  0  0  0  0  0  0  0
  2  1  1  0
  3  2  1  0
  5  4  1  0
  6  5  2  0
  7  6  1  0
  8  7  1  0
  9  5  1  0
 12  4  1  0
 13 11  1  0
 14 12  2  0
 15 14  1  0
 16 15  2  0
 17 16  1  0
 18 17  2  0
 18 12  1  0
 20 19  1  0
 21 10  1  0
 22 20  1  0
 23 22  1  0
 24 23  1  0
 26 25  1  0
 26 22  1  0
 29 28  1  0
 30 28  1  0
 31 28  1  0
 32 17  1  0
 33  6  1  0
 33  3  1  0
 34 11  1  0
 34  1  1  0
 34 10  1  0
 35 33  1  0
 35  4  2  0
 36 19  1  0
 36  9  1  0
 36  8  1  0
 37 27  1  0
 37 25  1  0
 37 24  1  0
 38 13  1  0
 38 21  1  0
 39 19  2  0
 40 27  2  0
 41 27  1  0
 41 28  1  0
 42 16  1  0
M  END
$$$$
