
     RDKit          3D

 50 56  0  0  0  0  0  0  0  0999 V2000
   -1.8320   18.8050   -3.9630 C   0  0  0  0  0  0  0  0  0  0  0  0
   -3.0940   17.9970   -3.8880 C   0  0  0  0  0  0  0  0  0  0  0  0
   -2.1080   17.9950   -2.7480 C   0  0  0  0  0  0  0  0  0  0  0  0
   -2.7930   17.0310   -6.1770 C   0  0  0  0  0  0  0  0  0  0  0  0
   -2.8810   14.3520   -5.1110 C   0  0  0  0  0  0  0  0  0  0  0  0
   -2.5440   15.5450   -4.2370 C   0  0  0  0  0  0  0  0  0  0  0  0
   -4.1650   13.6190   -7.0800 C   0  0  0  0  0  0  0  0  0  0  0  0
   -3.0610   12.7510   -7.6680 C   0  0  0  0  0  0  0  0  0  0  0  0
   -3.0010   15.7830   -7.0130 C   0  0  0  0  0  0  0  0  0  0  0  0
   -3.6150   11.8220   -8.7350 C   0  0  0  0  0  0  0  0  0  0  0  0
   -5.4640    9.4120   -6.9560 C   0  0  0  0  0  0  0  0  0  0  0  0
   -6.5250    9.9040   -7.7590 C   0  0  0  0  0  0  0  0  0  0  0  0
   -5.9660   10.8670   -8.5300 C   0  0  0  0  0  0  0  0  0  0  0  0
   -6.6980   11.6850   -9.5620 C   0  0  0  0  0  0  0  0  0  0  0  0
   -8.1810   11.3570   -9.4950 C   0  0  0  0  0  0  0  0  0  0  0  0
   -7.9570    9.5450   -7.8550 C   0  0  0  0  0  0  0  0  0  0  0  0
   -5.4720    8.3640   -5.9220 C   0  0  0  0  0  0  0  0  0  0  0  0
   -4.5040    7.3650   -5.9140 C   0  0  0  0  0  0  0  0  0  0  0  0
   -4.5210    6.3970   -4.9470 C   0  0  0  0  0  0  0  0  0  0  0  0
   -5.5020    6.4140   -3.9760 C   0  0  0  0  0  0  0  0  0  0  0  0
   -6.4860    7.3900   -3.9460 C   0  0  0  0  0  0  0  0  0  0  0  0
   -6.4590    8.3710   -4.9340 C   0  0  0  0  0  0  0  0  0  0  0  0
   -7.4890    7.3830   -2.9250 C   0  0  0  0  0  0  0  0  0  0  0  0
   -8.2870    7.3130   -2.0370 C   0  0  0  0  0  0  0  0  0  0  0  0
   -9.2860    7.2790   -1.0080 C   0  0  0  0  0  0  0  0  0  0  0  0
   -9.0360    6.6390    0.2050 C   0  0  0  0  0  0  0  0  0  0  0  0
  -10.0200    6.6070    1.1930 C   0  0  0  0  0  0  0  0  0  0  0  0
  -11.2610    7.2120    0.9930 C   0  0  0  0  0  0  0  0  0  0  0  0
  -11.4920    7.8450   -0.2210 C   0  0  0  0  0  0  0  0  0  0  0  0
  -10.5220    7.8810   -1.2110 C   0  0  0  0  0  0  0  0  0  0  0  0
  -12.3430    7.1820    2.0640 C   0  0  0  0  0  0  0  0  0  0  0  0
  -14.7580    6.6590    2.3380 C   0  0  0  0  0  0  0  0  0  0  0  0
  -14.6600    6.8760    3.8330 C   0  0  0  0  0  0  0  0  0  0  0  0
  -14.7540    8.1580    4.3780 C   0  0  0  0  0  0  0  0  0  0  0  0
  -14.6590    8.3640    5.7500 C   0  0  0  0  0  0  0  0  0  0  0  0
  -14.4650    7.2800    6.5850 C   0  0  0  0  0  0  0  0  0  0  0  0
  -14.3660    5.9930    6.0780 C   0  0  0  0  0  0  0  0  0  0  0  0
  -14.4640    5.7980    4.7000 C   0  0  0  0  0  0  0  0  0  0  0  0
  -11.0110    9.5760   -9.6360 C   0  0  0  0  0  0  0  0  0  0  0  0
   -3.7060   14.7610   -6.2410 N   0  0  0  0  0  0  0  0  0  0  0  0
   -4.6570   10.9420   -8.1990 N   0  0  0  0  0  0  0  0  0  0  0  0
   -4.3240   10.0450   -7.2220 N   0  0  0  0  0  0  0  0  0  0  0  0
   -8.3500    9.9280   -9.2150 N   0  0  0  0  0  0  0  0  0  0  0  0
   -3.1750   16.7880   -4.7480 N   0  0  0  0  0  0  0  0  0  0  0  0
  -13.4480    6.2500    1.7420 N   0  0  0  0  0  0  0  0  0  0  0  0
   -9.1970    9.5430  -11.4810 O   0  0  0  0  0  0  0  0  0  0  0  0
   -9.2170    7.7270   -9.8330 O   0  0  0  0  0  0  0  0  0  0  0  0
   -9.4050    9.1080  -10.1370 S   0  0  0  0  0  0  0  0  0  0  0  0
   -5.5190    5.2050   -2.7680 Cl  0  0  0  0  0  0  0  0  0  0  0  0
  -14.3400    7.5410    8.3170 Cl  0  0  0  0  0  0  0  0  0  0  0  0
  2  1  1  0
  3  2  1  0
  3  1  1  0
  6  5  1  0
  8  7  1  0
  9  4  1  0
 10  8  1  0
 12 11  1  0
 13 12  2  0
 14 13  1  0
 15 14  1  0
 16 12  1  0
 17 11  1  0
 18 17  2  0
 19 18  1  0
 20 19  2  0
 21 20  1  0
 22 17  1  0
 22 21  2  0
 23 21  1  0
 24 23  3  0
 25 24  1  0
 26 25  2  0
 27 26  1  0
 28 27  2  0
 29 28  1  0
 30 29  2  0
 30 25  1  0
 31 28  1  0
 33 32  1  0
 34 33  2  0
 35 34  1  0
 36 35  2  0
 37 36  1  0
 38 33  1  0
 38 37  2  0
 40  9  1  0
 40  7  1  0
 40  5  1  0
 41 13  1  0
 41 10  1  0
 42 11  2  0
 42 41  1  0
 43 16  1  0
 43 15  1  0
 44  6  1  0
 44  4  1  0
 44  2  1  0
 45 32  1  0
 45 31  1  0
 48 39  1  0
 48 46  2  0
 48 47  2  0
 48 43  1  0
 49 20  1  0
 50 36  1  0
M  END
$$$$
