
     RDKit          3D

 43 47  0  0  0  0  0  0  0  0999 V2000
   -9.0210    9.0330   -3.3260 C   0  0  0  0  0  0  0  0  0  0  0  0
   -8.1410    9.8750   -2.4100 C   0  0  0  0  0  0  0  0  0  0  0  0
  -10.3780   12.7810   -1.3890 C   0  0  0  0  0  0  0  0  0  0  0  0
   -9.8840   11.3230   -1.5380 C   0  0  0  0  0  0  0  0  0  0  0  0
   -7.5910   12.0170   -1.4810 C   0  0  0  0  0  0  0  0  0  0  0  0
   -7.9450   13.4910   -1.4260 C   0  0  0  0  0  0  0  0  0  0  0  0
   -9.2880   13.6430   -0.7850 C   0  0  0  0  0  0  0  0  0  0  0  0
   -6.9280    7.4190   -4.3070 C   0  0  0  0  0  0  0  0  0  0  0  0
   -6.8620    8.3490   -5.3430 C   0  0  0  0  0  0  0  0  0  0  0  0
   -5.7140    8.4460   -6.1430 C   0  0  0  0  0  0  0  0  0  0  0  0
   -4.6530    7.5910   -5.9020 C   0  0  0  0  0  0  0  0  0  0  0  0
   -4.7210    6.6720   -4.8800 C   0  0  0  0  0  0  0  0  0  0  0  0
   -5.8410    6.5680   -4.0680 C   0  0  0  0  0  0  0  0  0  0  0  0
   -5.9090    5.5440   -2.9660 C   0  0  0  0  0  0  0  0  0  0  0  0
   -5.6520    9.4200   -7.2570 C   0  0  0  0  0  0  0  0  0  0  0  0
   -6.6820    9.8140   -8.1670 C   0  0  0  0  0  0  0  0  0  0  0  0
   -6.1090   10.7050   -9.0120 C   0  0  0  0  0  0  0  0  0  0  0  0
   -6.8220   11.4050  -10.1440 C   0  0  0  0  0  0  0  0  0  0  0  0
   -8.2940   10.9510  -10.1990 C   0  0  0  0  0  0  0  0  0  0  0  0
   -8.0940    9.4240   -8.3180 C   0  0  0  0  0  0  0  0  0  0  0  0
   -3.7820   11.7020   -9.2470 C   0  0  0  0  0  0  0  0  0  0  0  0
   -3.6610   13.0800   -8.6210 C   0  0  2  0  0  0  0  0  0  0  0  0
   -2.9650   13.0230   -7.2760 C   0  0  0  0  0  0  0  0  0  0  0  0
   -1.8330   15.1420   -7.6390 C   0  0  0  0  0  0  0  0  0  0  0  0
   -1.5910   16.5510   -7.1230 C   0  0  0  0  0  0  0  0  0  0  0  0
   -1.0120   16.5310   -5.7130 C   0  0  0  0  0  0  0  0  0  0  0  0
   -1.8510   15.6690   -4.7960 C   0  0  0  0  0  0  0  0  0  0  0  0
   -2.0810   14.2930   -5.4020 C   0  0  0  0  0  0  0  0  0  0  0  0
   -8.6950    8.5120  -10.5320 C   0  0  0  0  0  0  0  0  0  0  0  0
   -8.9780    8.7710  -12.0220 C   0  0  0  0  0  0  0  0  0  0  0  0
   -9.1640   13.3250    0.5850 F   0  0  0  0  0  0  0  0  0  0  0  0
   -4.9900    4.6320   -3.0770 F   0  0  0  0  0  0  0  0  0  0  0  0
   -5.8820    6.0630   -1.7590 F   0  0  0  0  0  0  0  0  0  0  0  0
   -7.0350    4.8490   -3.0180 F   0  0  0  0  0  0  0  0  0  0  0  0
   -4.8250   10.8470   -8.6400 N   0  0  0  0  0  0  0  0  0  0  0  0
   -4.5030   10.0390   -7.5390 N   0  0  0  0  0  0  0  0  0  0  0  0
   -8.5910   11.2590   -2.2370 N   0  0  0  0  0  0  0  0  0  0  0  0
   -8.4010    9.5600   -9.7350 N   0  0  0  0  0  0  0  0  0  0  0  0
   -2.7000   14.3690   -6.7390 N   0  0  0  0  0  0  0  0  0  0  0  0
   -4.9430   13.7160   -8.5030 O   0  0  0  0  0  0  0  0  0  0  0  0
   -8.7550    7.3800  -10.1180 O   0  0  0  0  0  0  0  0  0  0  0  0
   -8.8300    7.5800  -12.7940 O   0  0  0  0  0  0  0  0  0  0  0  0
   -8.3920    7.3300   -3.3090 S   0  0  0  0  0  0  0  0  0  0  0  0
  2  1  1  0
  4  3  1  0
  6  5  1  0
  7  6  1  0
  7  3  1  0
  9  8  2  0
 10  9  1  0
 11 10  2  0
 12 11  1  0
 13  8  1  0
 13 12  2  0
 14 13  1  0
 15 10  1  0
 16 15  1  0
 17 16  2  0
 18 17  1  0
 19 18  1  0
 20 16  1  0
 22 21  1  0
 23 22  1  0
 25 24  1  0
 26 25  1  0
 27 26  1  0
 28 27  1  0
 30 29  1  0
 31  7  1  0
 32 14  1  0
 33 14  1  0
 34 14  1  0
 35 17  1  0
 35 21  1  0
 36 15  2  0
 36 35  1  0
 37  2  1  0
 37  5  1  0
 37  4  1  0
 38 29  1  0
 38 20  1  0
 38 19  1  0
 39 24  1  0
 39 23  1  0
 39 28  1  0
 22 40  1  1
 41 29  2  0
 42 30  1  0
 43  8  1  0
 43  1  1  0
M  END
$$$$
