
     RDKit          3D

 49 54  0  0  0  0  0  0  0  0999 V2000
   -3.5750   13.0490   -6.8810 C   0  0  0  0  0  0  0  0  0  0  0  0
   -3.0550   11.6060   -8.9580 C   0  0  0  0  0  0  0  0  0  0  0  0
   -3.0490   12.9960   -8.3120 C   0  0  0  0  0  0  0  0  0  0  0  0
   -8.0100   10.0160   -9.8770 N   0  0  0  0  0  0  0  0  0  0  0  0
   -9.1670    7.8380  -10.3200 C   0  0  0  0  0  0  0  0  0  0  0  0
   -8.7260    9.2670  -10.7490 C   0  0  0  0  0  0  0  0  0  0  0  0
   -6.1450    9.8020   -8.3050 C   0  0  0  0  0  0  0  0  0  0  0  0
   -5.4620   10.7210   -9.0330 C   0  0  0  0  0  0  0  0  0  0  0  0
   -7.5950    9.4750   -8.5590 C   0  0  0  0  0  0  0  0  0  0  0  0
   -7.5720   11.4100  -10.1470 C   0  0  0  0  0  0  0  0  0  0  0  0
   -6.0390   11.5260  -10.1690 C   0  0  0  0  0  0  0  0  0  0  0  0
   -5.2080    9.3040   -7.3590 C   0  0  0  0  0  0  0  0  0  0  0  0
   -2.1200   14.3580   -5.3990 C   0  0  0  0  0  0  0  0  0  0  0  0
   -2.2440   15.1520   -4.1200 C   0  0  0  0  0  0  0  0  0  0  0  0
   -3.4100   16.6600   -5.5550 C   0  0  0  0  0  0  0  0  0  0  0  0
   -3.9050   15.6270   -6.5670 C   0  0  2  0  0  0  0  0  0  0  0  0
   -5.4410   15.6990   -6.7330 C   0  0  0  0  0  0  0  0  0  0  0  0
   -5.3990    8.2990   -6.3000 C   0  0  0  0  0  0  0  0  0  0  0  0
   -6.6460    8.2450   -5.6630 C   0  0  0  0  0  0  0  0  0  0  0  0
   -6.8970    7.3230   -4.6510 C   0  0  0  0  0  0  0  0  0  0  0  0
   -5.8700    6.4380   -4.2770 C   0  0  0  0  0  0  0  0  0  0  0  0
   -4.6260    6.4780   -4.8980 C   0  0  0  0  0  0  0  0  0  0  0  0
   -4.3900    7.4110   -5.9080 C   0  0  0  0  0  0  0  0  0  0  0  0
   -8.1920    7.3150   -4.0420 C   0  0  0  0  0  0  0  0  0  0  0  0
   -9.3100    7.4190   -3.6270 C   0  0  0  0  0  0  0  0  0  0  0  0
  -10.6640    7.5840   -3.1820 C   0  0  0  0  0  0  0  0  0  0  0  0
  -11.6150    8.1930   -4.0050 C   0  0  0  0  0  0  0  0  0  0  0  0
  -12.9200    8.3280   -3.5650 C   0  0  0  0  0  0  0  0  0  0  0  0
  -13.2730    7.8530   -2.3080 C   0  0  0  0  0  0  0  0  0  0  0  0
  -12.3450    7.2420   -1.4590 C   0  0  0  0  0  0  0  0  0  0  0  0
  -11.0330    7.1140   -1.9230 C   0  0  0  0  0  0  0  0  0  0  0  0
  -12.7400    6.7230   -0.1040 C   0  0  0  0  0  0  0  0  0  0  0  0
  -14.1130    4.7360   -0.4250 C   0  0  0  0  0  0  0  0  0  0  0  0
  -14.1260    3.2280   -0.5310 C   0  0  0  0  0  0  0  0  0  0  0  0
  -14.3150    2.6070   -1.7630 C   0  0  0  0  0  0  0  0  0  0  0  0
  -14.3210    1.2200   -1.8650 C   0  0  0  0  0  0  0  0  0  0  0  0
  -14.1380    0.4350   -0.7350 C   0  0  0  0  0  0  0  0  0  0  0  0
  -13.9460    1.0420    0.5010 C   0  0  0  0  0  0  0  0  0  0  0  0
  -13.9440    2.4330    0.6000 C   0  0  0  0  0  0  0  0  0  0  0  0
   -4.2000   10.7740   -8.5340 N   0  0  0  0  0  0  0  0  0  0  0  0
   -4.0260    9.8990   -7.4930 N   0  0  0  0  0  0  0  0  0  0  0  0
  -10.2830    7.7940   -9.4740 N   0  0  0  0  0  0  0  0  0  0  0  0
   -3.4400   14.2940   -6.0850 N   0  0  0  0  0  0  0  0  0  0  0  0
  -12.7870    5.2560   -0.0870 N   0  0  0  0  0  0  0  0  0  0  0  0
   -9.0370    9.6600  -11.8760 O   0  0  0  0  0  0  0  0  0  0  0  0
   -8.5620    6.8230  -10.6980 O   0  0  0  0  0  0  0  0  0  0  0  0
   -3.2860   16.1500   -4.2010 O   0  0  0  0  0  0  0  0  0  0  0  0
  -14.9290    8.0440   -1.7850 Cl  0  0  0  0  0  0  0  0  0  0  0  0
   -6.1440    5.2720   -3.0230 Cl  0  0  0  0  0  0  0  0  0  0  0  0
  3  2  1  0
  3  1  1  0
  6  5  1  0
  6  4  1  0
  8  7  2  0
  9  7  1  0
  9  4  1  0
 10  4  1  0
 11  8  1  0
 11 10  1  0
 12  7  1  0
 14 13  1  0
 16 15  1  0
 16 17  1  1
 18 12  1  0
 19 18  2  0
 20 19  1  0
 21 20  2  0
 22 21  1  0
 23 18  1  0
 23 22  2  0
 24 20  1  0
 25 24  3  0
 26 25  1  0
 27 26  2  0
 28 27  1  0
 29 28  2  0
 30 29  1  0
 31 30  2  0
 31 26  1  0
 32 30  1  0
 34 33  1  0
 35 34  2  0
 36 35  1  0
 37 36  2  0
 38 37  1  0
 39 38  2  0
 39 34  1  0
 40  8  1  0
 40  2  1  0
 41 40  1  0
 41 12  2  0
 42  5  1  0
 43 16  1  0
 43  1  1  0
 43 13  1  0
 44 33  1  0
 44 32  1  0
 45  6  2  0
 46  5  2  0
 47 14  1  0
 47 15  1  0
 48 29  1  0
 49 21  1  0
M  END
$$$$
