
     RDKit          3D

 47 52  0  0  0  0  0  0  0  0999 V2000
   -9.7250   11.5130   -1.1540 C   0  0  0  0  0  0  0  0  0  0  0  0
  -10.1770   12.9430   -0.8730 C   0  0  0  0  0  0  0  0  0  0  0  0
   -7.8380   13.6900   -1.3190 C   0  0  0  0  0  0  0  0  0  0  0  0
   -8.1630   10.0460   -2.3060 C   0  0  0  0  0  0  0  0  0  0  0  0
   -9.1050    9.2670   -3.2050 C   0  0  0  0  0  0  0  0  0  0  0  0
   -5.0030    6.5910   -4.7270 C   0  0  0  0  0  0  0  0  0  0  0  0
   -4.8370    7.5360   -5.7020 C   0  0  0  0  0  0  0  0  0  0  0  0
   -5.8220    8.4830   -5.9380 C   0  0  0  0  0  0  0  0  0  0  0  0
   -6.9760    8.4720   -5.1640 C   0  0  0  0  0  0  0  0  0  0  0  0
   -6.1480    6.5520   -3.9500 C   0  0  0  0  0  0  0  0  0  0  0  0
   -7.1470    7.5090   -4.1720 C   0  0  0  0  0  0  0  0  0  0  0  0
   -6.2770    5.5030   -2.9000 C   0  0  0  0  0  0  0  0  0  0  0  0
   -9.0210   13.8060   -0.3910 C   0  0  0  0  0  0  0  0  0  0  0  0
   -5.6400    9.5110   -6.9670 C   0  0  0  0  0  0  0  0  0  0  0  0
   -4.8350   10.9500   -8.4190 C   0  0  0  0  0  0  0  0  0  0  0  0
   -4.4450    9.9930   -7.5450 C   0  0  0  0  0  0  0  0  0  0  0  0
   -3.0100    9.6300   -7.3460 C   0  0  0  0  0  0  0  0  0  0  0  0
   -2.4690   11.3340   -9.0590 C   0  0  0  0  0  0  0  0  0  0  0  0
   -3.9210   11.7500   -9.2780 C   0  0  0  0  0  0  0  0  0  0  0  0
   -7.4650   12.2450   -1.5500 C   0  0  0  0  0  0  0  0  0  0  0  0
   -7.0750   11.9390   -9.1270 C   0  0  0  0  0  0  0  0  0  0  0  0
   -7.7800   11.2020  -10.2370 C   0  0  0  0  0  0  0  0  0  0  0  0
   -8.8280   12.0830  -10.9080 C   0  0  0  0  0  0  0  0  0  0  0  0
   -1.2600   11.2290   -6.8730 C   0  0  0  0  0  0  0  0  0  0  0  0
   -0.4540   12.4160   -7.3070 C   0  0  0  0  0  0  0  0  0  0  0  0
   -1.1330   13.7680   -7.0220 C   0  0  0  0  0  0  0  0  0  0  0  0
   -1.2920   14.0050   -5.5390 C   0  0  0  0  0  0  0  0  0  0  0  0
   -1.9330   15.3520   -5.2510 C   0  0  0  0  0  0  0  0  0  0  0  0
   -0.9950   16.2860   -7.2640 C   0  0  0  0  0  0  0  0  0  0  0  0
   -0.3670   14.9290   -7.6280 C   0  0  0  0  0  0  0  0  0  0  0  0
   -1.8320   17.7410   -5.5860 C   0  0  0  0  0  0  0  0  0  0  0  0
   -1.4550   18.5160   -4.3180 C   0  0  0  0  0  0  0  0  0  0  0  0
   -0.7160   17.6850   -3.2770 C   0  0  0  0  0  0  0  0  0  0  0  0
   -0.2880   18.4950   -2.0490 C   0  0  0  0  0  0  0  0  0  0  0  0
   -0.9920   19.8410   -1.9860 C   0  0  0  0  0  0  0  0  0  0  0  0
   -2.4890   19.7020   -2.2980 C   0  0  0  0  0  0  0  0  0  0  0  0
   -2.7210   19.1090   -3.6920 C   0  0  0  0  0  0  0  0  0  0  0  0
   -7.4250    4.8290   -2.9900 F   0  0  0  0  0  0  0  0  0  0  0  0
   -6.2490    6.0250   -1.6730 F   0  0  0  0  0  0  0  0  0  0  0  0
   -5.2830    4.6200   -2.9500 F   0  0  0  0  0  0  0  0  0  0  0  0
   -8.5840   11.4520   -2.0920 N   0  0  0  0  0  0  0  0  0  0  0  0
   -6.7090   10.1550   -7.4620 N   0  0  0  0  0  0  0  0  0  0  0  0
   -6.1720   11.0380   -8.3620 N   0  0  0  0  0  0  0  0  0  0  0  0
   -2.1960   10.7700   -7.7210 N   0  0  0  0  0  0  0  0  0  0  0  0
   -1.1130   16.4650   -5.8010 N   0  0  0  0  0  0  0  0  0  0  0  0
   -1.0740   10.7120   -5.7790 O   0  0  0  0  0  0  0  0  0  0  0  0
   -8.6270    7.5120   -3.2140 S   0  0  0  0  0  0  0  0  0  0  0  0
  2  1  1  0
  5  4  1  0
  7  6  2  0
  8  7  1  0
  9  8  2  0
 10  6  1  0
 11 10  2  0
 11  9  1  0
 12 10  1  0
 13  3  1  0
 13  2  1  0
 14  8  1  0
 16 14  1  0
 16 15  2  0
 17 16  1  0
 19 18  1  0
 19 15  1  0
 20  3  1  0
 22 21  1  0
 23 22  1  0
 25 24  1  0
 26 25  1  0
 27 26  1  0
 28 27  1  0
 30 29  1  0
 30 26  1  0
 32 31  1  0
 33 32  1  0
 34 33  1  0
 35 34  1  0
 36 35  1  0
 37 36  1  0
 37 32  1  0
 38 12  1  0
 39 12  1  0
 40 12  1  0
 41  4  1  0
 41 20  1  0
 41  1  1  0
 42 14  2  0
 43 42  1  0
 43 21  1  0
 43 15  1  0
 44 17  1  0
 44 24  1  0
 44 18  1  0
 45 29  1  0
 45 28  1  0
 45 31  1  0
 46 24  2  0
 47 11  1  0
 47  5  1  0
M  END
$$$$
