
     RDKit          3D

 45 49  0  0  0  0  0  0  0  0999 V2000
   -7.6060   13.1030   -0.5040 C   0  0  0  0  0  0  0  0  0  0  0  0
   -8.8220   13.1910    0.1130 C   0  0  0  0  0  0  0  0  0  0  0  0
   -9.8580   12.3450   -0.1640 C   0  0  0  0  0  0  0  0  0  0  0  0
   -9.6630   11.3610   -1.1120 C   0  0  0  0  0  0  0  0  0  0  0  0
   -8.4490   11.2290   -1.7680 C   0  0  0  0  0  0  0  0  0  0  0  0
   -7.4280   12.1100   -1.4500 C   0  0  0  0  0  0  0  0  0  0  0  0
   -8.2460   10.1430   -2.8070 C   0  0  0  0  0  0  0  0  0  0  0  0
   -6.7200    7.6630   -4.1400 C   0  0  0  0  0  0  0  0  0  0  0  0
   -6.5780    8.5740   -5.1890 C   0  0  0  0  0  0  0  0  0  0  0  0
   -5.4910    8.5250   -6.0580 C   0  0  0  0  0  0  0  0  0  0  0  0
   -4.5400    7.5260   -5.8780 C   0  0  0  0  0  0  0  0  0  0  0  0
   -4.6700    6.6150   -4.8410 C   0  0  0  0  0  0  0  0  0  0  0  0
   -5.7440    6.6750   -3.9600 C   0  0  0  0  0  0  0  0  0  0  0  0
   -5.8510    5.6460   -2.8640 C   0  0  0  0  0  0  0  0  0  0  0  0
   -7.9130    7.7640   -3.2140 C   0  0  0  0  0  0  0  0  0  0  0  0
   -5.4040    9.5100   -7.1790 C   0  0  0  0  0  0  0  0  0  0  0  0
   -6.4400    9.9290   -8.0560 C   0  0  0  0  0  0  0  0  0  0  0  0
   -5.8560   10.8110   -8.9090 C   0  0  0  0  0  0  0  0  0  0  0  0
   -6.5530   11.5310  -10.0160 C   0  0  0  0  0  0  0  0  0  0  0  0
   -8.0390   11.1840  -10.0130 C   0  0  0  0  0  0  0  0  0  0  0  0
   -7.9000    9.5720   -8.1520 C   0  0  0  0  0  0  0  0  0  0  0  0
  -10.9140    9.5830   -9.9400 C   0  0  0  0  0  0  0  0  0  0  0  0
   -3.5280   11.7250   -9.2020 C   0  0  0  0  0  0  0  0  0  0  0  0
   -3.3900   13.1490   -8.6770 C   0  0  2  0  0  0  0  0  0  0  0  0
   -2.6420   13.1810   -7.3540 C   0  0  0  0  0  0  0  0  0  0  0  0
   -1.9220   14.4910   -5.4630 C   0  0  0  0  0  0  0  0  0  0  0  0
   -1.9320   15.8650   -4.8240 C   0  0  0  0  0  0  0  0  0  0  0  0
   -1.0250   16.7790   -5.6460 C   0  0  0  0  0  0  0  0  0  0  0  0
   -1.5160   16.7860   -7.0990 C   0  0  0  0  0  0  0  0  0  0  0  0
   -1.6110   15.3730   -7.6560 C   0  0  0  0  0  0  0  0  0  0  0  0
    0.4100   16.2560   -5.5930 C   0  0  0  0  0  0  0  0  0  0  0  0
   -1.0690   18.2040   -5.0730 C   0  0  0  0  0  0  0  0  0  0  0  0
   -9.0090   14.1540    1.0390 F   0  0  0  0  0  0  0  0  0  0  0  0
   -4.8100    4.8060   -2.8530 F   0  0  0  0  0  0  0  0  0  0  0  0
   -5.9700    6.1500   -1.6450 F   0  0  0  0  0  0  0  0  0  0  0  0
   -6.9270    4.8720   -3.0240 F   0  0  0  0  0  0  0  0  0  0  0  0
   -7.8230    8.8580   -2.2380 N   0  0  0  0  0  0  0  0  0  0  0  0
   -4.5530   10.9040   -8.5550 N   0  0  0  0  0  0  0  0  0  0  0  0
   -4.2400   10.1020   -7.4920 N   0  0  0  0  0  0  0  0  0  0  0  0
   -8.2340    9.7830   -9.5760 N   0  0  0  0  0  0  0  0  0  0  0  0
   -2.4740   14.5370   -6.8190 N   0  0  0  0  0  0  0  0  0  0  0  0
   -9.2730    7.5780   -9.9540 O   0  0  0  0  0  0  0  0  0  0  0  0
   -9.1340    9.2090  -11.7780 O   0  0  0  0  0  0  0  0  0  0  0  0
   -4.6530   13.8170   -8.5950 O   0  0  0  0  0  0  0  0  0  0  0  0
   -9.3530    8.9310  -10.3960 S   0  0  0  0  0  0  0  0  0  0  0  0
  2  1  2  0
  3  2  1  0
  4  3  2  0
  5  4  1  0
  6  5  2  0
  6  1  1  0
  7  5  1  0
  9  8  2  0
 10  9  1  0
 11 10  2  0
 12 11  1  0
 13  8  1  0
 13 12  2  0
 14 13  1  0
 15  8  1  0
 16 10  1  0
 17 16  1  0
 18 17  2  0
 19 18  1  0
 20 19  1  0
 21 17  1  0
 24 23  1  0
 25 24  1  0
 27 26  1  0
 28 27  1  0
 29 28  1  0
 30 29  1  0
 31 28  1  0
 32 28  1  0
 33  2  1  0
 34 14  1  0
 35 14  1  0
 36 14  1  0
 37 15  1  0
 37  7  1  0
 38 18  1  0
 38 23  1  0
 39 16  2  0
 39 38  1  0
 40 21  1  0
 40 20  1  0
 41 30  1  0
 41 26  1  0
 41 25  1  0
 24 44  1  1
 45 22  1  0
 45 43  2  0
 45 42  2  0
 45 40  1  0
M  END
$$$$
