
     RDKit          3D

 52 56  0  0  0  0  0  0  0  0999 V2000
   -7.9100    7.9840   -3.5520 C   0  0  0  0  0  0  0  0  0  0  0  0
   -9.1360   11.9850   -1.0800 C   0  0  0  0  0  0  0  0  0  0  0  0
   -4.6390    6.8730   -5.1660 C   0  0  0  0  0  0  0  0  0  0  0  0
   -6.4940    8.8840   -5.4250 C   0  0  0  0  0  0  0  0  0  0  0  0
   -4.4650    7.8430   -6.1240 C   0  0  0  0  0  0  0  0  0  0  0  0
   -5.3820    8.8530   -6.2620 C   0  0  0  0  0  0  0  0  0  0  0  0
   -5.7370    6.8950   -4.3250 C   0  0  0  0  0  0  0  0  0  0  0  0
   -5.8760    5.8130   -3.3120 C   0  0  0  0  0  0  0  0  0  0  0  0
   -8.6400   10.2200   -2.8130 C   0  0  0  0  0  0  0  0  0  0  0  0
   -8.3150   11.3310   -1.9070 C   0  0  0  0  0  0  0  0  0  0  0  0
   -6.6920    7.9120   -4.4560 C   0  0  0  0  0  0  0  0  0  0  0  0
   -8.6130   13.1140   -0.2350 C   0  0  0  0  0  0  0  0  0  0  0  0
  -10.6170   11.6890   -0.8980 C   0  0  0  0  0  0  0  0  0  0  0  0
   -5.1890    9.8810   -7.3000 C   0  0  0  0  0  0  0  0  0  0  0  0
   -6.1170   10.4110   -8.2360 C   0  0  0  0  0  0  0  0  0  0  0  0
   -5.4070   11.3120   -8.9530 C   0  0  0  0  0  0  0  0  0  0  0  0
   -5.9490   12.1450  -10.0670 C   0  0  0  0  0  0  0  0  0  0  0  0
   -7.4670   11.9880  -10.1480 C   0  0  0  0  0  0  0  0  0  0  0  0
   -7.5780   10.1420   -8.4880 C   0  0  0  0  0  0  0  0  0  0  0  0
   -2.9880   12.1040   -8.8910 C   0  0  0  0  0  0  0  0  0  0  0  0
   -2.4550   12.9950   -7.7340 C   0  0  0  0  0  0  0  0  0  0  0  0
   -3.2390   14.3000   -7.4910 C   0  0  0  0  0  0  0  0  0  0  0  0
   -2.7380   14.5220   -5.0840 C   0  0  0  0  0  0  0  0  0  0  0  0
   -2.5410   15.5460   -3.9820 C   0  0  0  0  0  0  0  0  0  0  0  0
   -0.7180   16.1860   -5.3650 C   0  0  0  0  0  0  0  0  0  0  0  0
   -1.3470   15.6570   -6.6470 C   0  0  0  0  0  0  0  0  0  0  0  0
   -8.6240    9.8690  -10.6600 C   0  0  0  0  0  0  0  0  0  0  0  0
   -8.9330   10.4220  -12.0350 C   0  0  0  0  0  0  0  0  0  0  0  0
  -10.3330   11.0090  -12.2590 C   0  0  0  0  0  0  0  0  0  0  0  0
  -11.0170   10.3890  -13.4780 C   0  0  0  0  0  0  0  0  0  0  0  0
  -12.4720   10.8320  -13.5930 C   0  0  0  0  0  0  0  0  0  0  0  0
  -12.5510   11.6240  -11.2800 C   0  0  0  0  0  0  0  0  0  0  0  0
  -11.2310   10.8790  -11.0600 C   0  0  0  0  0  0  0  0  0  0  0  0
  -13.0280   16.3460  -13.2340 C   0  0  0  0  0  0  0  0  0  0  0  0
  -15.0440   14.8850  -12.9380 C   0  0  0  0  0  0  0  0  0  0  0  0
  -12.7680   13.2370  -13.2080 C   0  0  0  0  0  0  0  0  0  0  0  0
  -13.9220   15.9000  -10.9380 C   0  0  0  0  0  0  0  0  0  0  0  0
  -13.7280   15.3430  -12.3380 C   0  0  0  0  0  0  0  0  0  0  0  0
   -5.8930    6.2700   -2.0540 F   0  0  0  0  0  0  0  0  0  0  0  0
   -4.8740    4.9380   -3.3810 F   0  0  0  0  0  0  0  0  0  0  0  0
   -6.9810    5.0990   -3.5150 F   0  0  0  0  0  0  0  0  0  0  0  0
   -7.7900    9.1840   -2.7280 N   0  0  0  0  0  0  0  0  0  0  0  0
   -4.1410   11.3110   -8.4730 N   0  0  0  0  0  0  0  0  0  0  0  0
   -3.9850   10.4270   -7.4500 N   0  0  0  0  0  0  0  0  0  0  0  0
   -7.9240   10.6390   -9.8150 N   0  0  0  0  0  0  0  0  0  0  0  0
   -2.7100   15.1860   -6.3870 N   0  0  0  0  0  0  0  0  0  0  0  0
  -12.7390   11.9730  -12.7150 N   0  0  0  0  0  0  0  0  0  0  0  0
   -9.6000   10.2260   -3.6050 O   0  0  0  0  0  0  0  0  0  0  0  0
   -1.7140   16.6390   -4.4120 O   0  0  0  0  0  0  0  0  0  0  0  0
   -8.9800    8.7450  -10.3480 O   0  0  0  0  0  0  0  0  0  0  0  0
  -12.7120   13.4990  -14.3860 O   0  0  0  0  0  0  0  0  0  0  0  0
  -12.8590   14.1330  -12.2140 O   0  0  0  0  0  0  0  0  0  0  0  0
  5  3  2  0
  6  4  2  0
  6  5  1  0
  7  3  1  0
  8  7  1  0
 10  9  1  0
 10  2  2  0
 11  7  2  0
 11  4  1  0
 11  1  1  0
 12  2  1  0
 13  2  1  0
 14  6  1  0
 15 14  1  0
 16 15  2  0
 17 16  1  0
 18 17  1  0
 19 15  1  0
 21 20  1  0
 22 21  1  0
 24 23  1  0
 26 25  1  0
 28 27  1  0
 29 28  1  0
 30 29  1  0
 31 30  1  0
 33 32  1  0
 33 29  1  0
 38 37  1  0
 38 35  1  0
 38 34  1  0
 39  8  1  0
 40  8  1  0
 41  8  1  0
 42  9  1  0
 42  1  1  0
 43 20  1  0
 43 16  1  0
 44 14  2  0
 44 43  1  0
 45 27  1  0
 45 19  1  0
 45 18  1  0
 46 26  1  0
 46 22  1  0
 46 23  1  0
 47 31  1  0
 47 36  1  0
 47 32  1  0
 48  9  2  0
 49 25  1  0
 49 24  1  0
 50 27  2  0
 51 36  2  0
 52 38  1  0
 52 36  1  0
M  END
$$$$
