
     RDKit          3D

 46 51  0  0  0  0  0  0  0  0999 V2000
   -1.7550   14.8700   -4.7130 C   0  0  0  0  0  0  0  0  0  0  0  0
   -1.9300   15.7420   -7.5080 C   0  0  0  0  0  0  0  0  0  0  0  0
   -3.0710   16.2220   -6.6030 C   0  0  0  0  0  0  0  0  0  0  0  0
    0.7500   19.1760   -4.6670 C   0  0  0  0  0  0  0  0  0  0  0  0
   -3.4890   17.8730   -3.4950 C   0  0  0  0  0  0  0  0  0  0  0  0
   -0.1500   18.1420   -4.9300 C   0  0  0  0  0  0  0  0  0  0  0  0
   -2.7720   16.0210   -5.0950 C   0  0  0  0  0  0  0  0  0  0  0  0
   -3.6860   19.8960   -2.0300 C   0  0  0  0  0  0  0  0  0  0  0  0
   -0.7670   14.5450   -5.8310 C   0  0  0  0  0  0  0  0  0  0  0  0
   -1.3840   18.1980   -4.2920 C   0  0  0  0  0  0  0  0  0  0  0  0
   -2.3870   13.3080   -7.2270 C   0  0  0  0  0  0  0  0  0  0  0  0
   -2.6370   12.9260   -8.6780 C   0  0  0  0  0  0  0  0  0  0  0  0
   -1.6950   19.2430   -3.4340 C   0  0  0  0  0  0  0  0  0  0  0  0
   -2.6310   11.4250   -8.9220 C   0  0  0  0  0  0  0  0  0  0  0  0
   -3.9690    9.9080   -7.4990 C   0  0  0  0  0  0  0  0  0  0  0  0
   -5.2720    9.3010   -7.1770 C   0  0  0  0  0  0  0  0  0  0  0  0
   -6.2410   10.4960   -8.9390 C   0  0  0  0  0  0  0  0  0  0  0  0
   -5.0630   11.0780   -9.2750 C   0  0  0  0  0  0  0  0  0  0  0  0
   -0.7870   20.2630   -3.1840 C   0  0  0  0  0  0  0  0  0  0  0  0
    0.4460   20.2230   -3.8100 C   0  0  0  0  0  0  0  0  0  0  0  0
   -5.4430    8.3550   -6.0580 C   0  0  0  0  0  0  0  0  0  0  0  0
   -4.4610    7.4150   -5.7530 C   0  0  0  0  0  0  0  0  0  0  0  0
   -4.6330    6.5440   -4.6960 C   0  0  0  0  0  0  0  0  0  0  0  0
   -5.7850    6.6080   -3.9350 C   0  0  0  0  0  0  0  0  0  0  0  0
   -6.8000    7.5380   -4.2020 C   0  0  0  0  0  0  0  0  0  0  0  0
   -6.6000    8.4090   -5.2730 C   0  0  0  0  0  0  0  0  0  0  0  0
   -8.0590    7.6160   -3.3720 C   0  0  0  0  0  0  0  0  0  0  0  0
   -9.1610    9.5840   -2.4150 C   0  0  0  0  0  0  0  0  0  0  0  0
   -9.0160   10.8170   -1.5810 C   0  0  0  0  0  0  0  0  0  0  0  0
  -10.0720   11.2870   -0.8040 C   0  0  0  0  0  0  0  0  0  0  0  0
   -9.9310   12.4340   -0.0370 C   0  0  0  0  0  0  0  0  0  0  0  0
   -8.7310   13.0900   -0.0690 C   0  0  0  0  0  0  0  0  0  0  0  0
   -7.6720   12.6690   -0.8200 C   0  0  0  0  0  0  0  0  0  0  0  0
   -7.8160   11.5280   -1.5780 C   0  0  0  0  0  0  0  0  0  0  0  0
   -8.5810   14.2140    0.6780 F   0  0  0  0  0  0  0  0  0  0  0  0
   -2.9680   19.0280   -2.9620 N   0  0  0  0  0  0  0  0  0  0  0  0
   -2.5110   17.3460   -4.3270 N   0  0  0  0  0  0  0  0  0  0  0  0
   -1.4260   14.4290   -7.1100 N   0  0  0  0  0  0  0  0  0  0  0  0
   -3.9360   10.7880   -8.5630 N   0  0  0  0  0  0  0  0  0  0  0  0
   -6.3910    9.5990   -7.8900 N   0  0  0  0  0  0  0  0  0  0  0  0
   -8.0650    8.8310   -2.5810 N   0  0  0  0  0  0  0  0  0  0  0  0
   -2.9490    9.6600   -6.8690 O   0  0  0  0  0  0  0  0  0  0  0  0
   -4.5900   17.4090   -3.2770 O   0  0  0  0  0  0  0  0  0  0  0  0
  -10.2420    9.2950   -2.9190 O   0  0  0  0  0  0  0  0  0  0  0  0
    2.3100   19.1550   -5.4410 Cl  0  0  0  0  0  0  0  0  0  0  0  0
   -5.9430    5.4900   -2.6260 Cl  0  0  0  0  0  0  0  0  0  0  0  0
  3  2  1  0
  6  4  2  0
  7  3  1  0
  7  1  1  0
  9  1  1  0
 10  6  1  0
 12 11  1  0
 13 10  2  0
 14 12  1  0
 16 15  1  0
 18 17  2  0
 19 13  1  0
 20 19  2  0
 20  4  1  0
 21 16  1  0
 22 21  2  0
 23 22  1  0
 24 23  2  0
 25 24  1  0
 26 25  2  0
 26 21  1  0
 27 25  1  0
 29 28  1  0
 30 29  2  0
 31 30  1  0
 32 31  2  0
 33 32  1  0
 34 29  1  0
 34 33  2  0
 35 32  1  0
 36 13  1  0
 36  8  1  0
 36  5  1  0
 37  7  1  0
 37 10  1  0
 37  5  1  0
 38 11  1  0
 38  9  1  0
 38  2  1  0
 39 15  1  0
 39 18  1  0
 39 14  1  0
 40 17  1  0
 40 16  2  0
 41 28  1  0
 41 27  1  0
 42 15  2  0
 43  5  2  0
 44 28  2  0
 45  4  1  0
 46 24  1  0
M  END
$$$$
