
     RDKit          3D

 47 52  0  0  0  0  0  0  0  0999 V2000
   -6.4980    9.3930   -8.3130 C   0  0  0  0  0  0  0  0  0  0  0  0
   -5.8660   10.3130   -9.0930 C   0  0  0  0  0  0  0  0  0  0  0  0
   -6.4690   11.0100  -10.2690 C   0  0  0  0  0  0  0  0  0  0  0  0
   -7.9390   10.6350  -10.3640 C   0  0  0  0  0  0  0  0  0  0  0  0
   -7.8680    8.9710   -8.5540 C   0  0  0  0  0  0  0  0  0  0  0  0
   -4.6210   10.4790   -8.6030 N   0  0  0  0  0  0  0  0  0  0  0  0
   -5.5520    9.0140   -7.3410 C   0  0  0  0  0  0  0  0  0  0  0  0
   -5.6800    8.0550   -6.2220 C   0  0  0  0  0  0  0  0  0  0  0  0
   -3.5590   11.3500   -9.0870 C   0  0  0  0  0  0  0  0  0  0  0  0
  -10.5350    9.6870  -11.0520 C   0  0  0  0  0  0  0  0  0  0  0  0
   -3.1770   12.4150   -8.0890 C   0  0  0  0  0  0  0  0  0  0  0  0
   -4.3750   13.1010   -7.4250 C   0  0  0  0  0  0  0  0  0  0  0  0
   -2.7250   13.7630   -5.7210 C   0  0  0  0  0  0  0  0  0  0  0  0
   -2.5140   14.6060   -4.4830 C   0  0  0  0  0  0  0  0  0  0  0  0
   -3.3450   16.3610   -5.8050 C   0  0  0  0  0  0  0  0  0  0  0  0
   -3.9840   15.4480   -6.8350 C   0  0  0  0  0  0  0  0  0  0  0  0
   -4.6790    7.1370   -5.9410 C   0  0  0  0  0  0  0  0  0  0  0  0
   -4.8140    6.2650   -4.8870 C   0  0  0  0  0  0  0  0  0  0  0  0
   -5.9540    6.3070   -4.1070 C   0  0  0  0  0  0  0  0  0  0  0  0
   -6.9780    7.2070   -4.3410 C   0  0  0  0  0  0  0  0  0  0  0  0
   -6.8190    8.0840   -5.4160 C   0  0  0  0  0  0  0  0  0  0  0  0
   -8.2280    7.2650   -3.4930 C   0  0  0  0  0  0  0  0  0  0  0  0
   -9.2160    8.3800   -3.9680 C   0  0  0  0  0  0  0  0  0  0  0  0
  -10.6350    8.1840   -3.4770 C   0  0  0  0  0  0  0  0  0  0  0  0
  -10.8820    7.7290   -2.1810 C   0  0  0  0  0  0  0  0  0  0  0  0
  -12.1780    7.5400   -1.6970 C   0  0  0  0  0  0  0  0  0  0  0  0
  -13.2280    7.8220   -2.5660 C   0  0  0  0  0  0  0  0  0  0  0  0
  -13.0080    8.2750   -3.8540 C   0  0  0  0  0  0  0  0  0  0  0  0
  -11.7170    8.4530   -4.3020 C   0  0  0  0  0  0  0  0  0  0  0  0
  -12.4330    7.0440   -0.2940 C   0  0  0  0  0  0  0  0  0  0  0  0
  -13.8320    5.0620   -0.0410 C   0  0  0  0  0  0  0  0  0  0  0  0
  -13.8990    3.5650   -0.1960 C   0  0  0  0  0  0  0  0  0  0  0  0
  -13.5830    2.7260    0.8700 C   0  0  0  0  0  0  0  0  0  0  0  0
  -13.6420    1.3500    0.7260 C   0  0  0  0  0  0  0  0  0  0  0  0
  -14.0190    0.7880   -0.4900 C   0  0  0  0  0  0  0  0  0  0  0  0
  -14.3340    1.6090   -1.5550 C   0  0  0  0  0  0  0  0  0  0  0  0
  -14.2740    2.9910   -1.4080 C   0  0  0  0  0  0  0  0  0  0  0  0
   -4.3950    9.6830   -7.5090 N   0  0  0  0  0  0  0  0  0  0  0  0
   -4.0220   14.0770   -6.3340 N   0  0  0  0  0  0  0  0  0  0  0  0
   -8.1190    9.2210   -9.9740 N   0  0  0  0  0  0  0  0  0  0  0  0
  -12.4740    5.5770   -0.2240 N   0  0  0  0  0  0  0  0  0  0  0  0
   -9.9440    7.6390   -9.6120 O   0  0  0  0  0  0  0  0  0  0  0  0
   -8.9110    7.8470  -11.8290 O   0  0  0  0  0  0  0  0  0  0  0  0
   -3.3290   15.7730   -4.4910 O   0  0  0  0  0  0  0  0  0  0  0  0
   -9.3820    8.4640  -10.6320 S   0  0  0  0  0  0  0  0  0  0  0  0
   -6.0920    5.2090   -2.8010 Cl  0  0  0  0  0  0  0  0  0  0  0  0
  -14.8720    7.6120   -2.0320 Cl  0  0  0  0  0  0  0  0  0  0  0  0
  2  1  2  0
  3  2  1  0
  4  3  1  0
  5  1  1  0
  6  2  1  0
  7  1  1  0
  8  7  1  0
  9  6  1  0
 11  9  1  0
 12 11  1  0
 14 13  1  0
 16 15  1  0
 17  8  2  0
 18 17  1  0
 19 18  2  0
 20 19  1  0
 21  8  1  0
 21 20  2  0
 22 20  1  0
 23 22  1  0
 24 23  1  0
 25 24  2  0
 26 25  1  0
 27 26  2  0
 28 27  1  0
 29 28  2  0
 29 24  1  0
 30 26  1  0
 32 31  1  0
 33 32  2  0
 34 33  1  0
 35 34  2  0
 36 35  1  0
 37 36  2  0
 37 32  1  0
 38  7  2  0
 38  6  1  0
 39 16  1  0
 39 13  1  0
 39 12  1  0
 40  5  1  0
 40  4  1  0
 41 31  1  0
 41 30  1  0
 44 14  1  0
 44 15  1  0
 45 43  2  0
 45 10  1  0
 45 42  2  0
 45 40  1  0
 46 19  1  0
 47 27  1  0
M  END
$$$$
