
     RDKit          3D

 46 50  0  0  0  0  0  0  0  0999 V2000
   -8.7450   11.2890   -2.1200 N   0  0  0  0  0  0  0  0  0  0  0  0
   -7.6710   12.0600   -1.4400 C   0  0  0  0  0  0  0  0  0  0  0  0
   -9.3610   13.6330   -0.4750 C   0  0  0  0  0  0  0  0  0  0  0  0
  -10.4250   12.8480   -1.1920 C   0  0  0  0  0  0  0  0  0  0  0  0
  -10.0030   11.4050   -1.3420 C   0  0  0  0  0  0  0  0  0  0  0  0
   -9.0200   11.4400  -10.7090 C   0  0  0  0  0  0  0  0  0  0  0  0
   -7.5670   11.0530  -10.4290 C   0  0  0  0  0  0  0  0  0  0  0  0
   -6.9810   11.8370   -9.2410 C   0  0  0  0  0  0  0  0  0  0  0  0
   -6.0290   10.9780   -8.4190 N   0  0  0  0  0  0  0  0  0  0  0  0
   -6.5390   10.0660   -7.5380 N   0  0  0  0  0  0  0  0  0  0  0  0
   -5.4550    9.4890   -6.9940 C   0  0  0  0  0  0  0  0  0  0  0  0
   -4.2690   10.0440   -7.5340 C   0  0  0  0  0  0  0  0  0  0  0  0
   -2.7980    9.7760   -7.2830 C   0  0  0  0  0  0  0  0  0  0  0  0
   -2.0440   10.9670   -7.6310 N   0  0  0  0  0  0  0  0  0  0  0  0
   -2.3490   11.5070   -8.9940 C   0  0  0  0  0  0  0  0  0  0  0  0
   -3.8110   11.8260   -9.2510 C   0  0  0  0  0  0  0  0  0  0  0  0
   -4.6930   10.9740   -8.4270 C   0  0  0  0  0  0  0  0  0  0  0  0
   -1.1470   11.4680   -6.7500 C   0  0  0  0  0  0  0  0  0  0  0  0
   -0.9600   10.9520   -5.6570 O   0  0  0  0  0  0  0  0  0  0  0  0
   -0.4000   12.7260   -7.1190 C   0  0  0  0  0  0  0  0  0  0  0  0
   -1.2490   14.0220   -6.9210 C   0  0  0  0  0  0  0  0  0  0  0  0
   -1.8090   14.1030   -5.5070 C   0  0  0  0  0  0  0  0  0  0  0  0
   -2.6240   15.3750   -5.2890 C   0  0  0  0  0  0  0  0  0  0  0  0
   -1.8110   16.5700   -5.5410 N   0  0  0  0  0  0  0  0  0  0  0  0
   -1.2920   16.5570   -6.9380 C   0  0  0  0  0  0  0  0  0  0  0  0
   -0.4590   15.2900   -7.2100 C   0  0  0  0  0  0  0  0  0  0  0  0
   -1.6300   17.5030   -4.5620 C   0  0  0  0  0  0  0  0  0  0  0  0
   -2.1260   17.3770   -3.4540 O   0  0  0  0  0  0  0  0  0  0  0  0
   -0.7690   18.7320   -4.8960 C   0  0  0  0  0  0  0  0  0  0  0  0
   -0.5170   19.6570   -3.7620 N   0  0  0  0  0  0  0  0  0  0  0  0
   -1.6820   20.5020   -3.4730 C   0  0  0  0  0  0  0  0  0  0  0  0
   -0.0550   18.9480   -2.5270 C   0  0  0  0  0  0  0  0  0  0  0  0
   -5.6300    8.4290   -5.9420 C   0  0  0  0  0  0  0  0  0  0  0  0
   -4.6340    7.4970   -5.7050 C   0  0  0  0  0  0  0  0  0  0  0  0
   -4.7950    6.5460   -4.7250 C   0  0  0  0  0  0  0  0  0  0  0  0
   -5.9430    6.4830   -3.9380 C   0  0  0  0  0  0  0  0  0  0  0  0
   -6.9670    7.4320   -4.1540 C   0  0  0  0  0  0  0  0  0  0  0  0
   -6.7990    8.3990   -5.1550 C   0  0  0  0  0  0  0  0  0  0  0  0
   -8.4600    7.3830   -3.1790 S   0  0  0  0  0  0  0  0  0  0  0  0
   -9.1940    9.0380   -3.1930 C   0  0  0  0  0  0  0  0  0  0  0  0
   -8.3180    9.8680   -2.2860 C   0  0  0  0  0  0  0  0  0  0  0  0
   -8.0380   13.5160   -1.1960 C   0  0  0  0  0  0  0  0  0  0  0  0
   -6.0960    5.4300   -2.8790 C   0  0  0  0  0  0  0  0  0  0  0  0
   -7.2200    4.6950   -3.0350 F   0  0  0  0  0  0  0  0  0  0  0  0
   -6.1810    5.9490   -1.6260 F   0  0  0  0  0  0  0  0  0  0  0  0
   -5.1280    4.6110   -2.8660 F   0  0  0  0  0  0  0  0  0  0  0  0
  2  1  1  0
  4  3  1  0
  5  4  1  0
  5  1  1  0
  7  6  1  0
  8  7  1  0
  9  8  1  0
 10  9  1  0
 11 10  2  0
 12 11  1  0
 13 12  1  0
 14 13  1  0
 15 14  1  0
 16 15  1  0
 17  9  1  0
 17 12  2  0
 17 16  1  0
 18 14  1  0
 19 18  2  0
 20 18  1  0
 21 20  1  0
 22 21  1  0
 23 22  1  0
 24 23  1  0
 25 24  1  0
 26 21  1  0
 26 25  1  0
 27 24  1  0
 28 27  2  0
 29 27  1  0
 30 29  1  0
 31 30  1  0
 32 30  1  0
 33 11  1  0
 34 33  2  0
 35 34  1  0
 36 35  2  0
 37 36  1  0
 38 33  1  0
 38 37  2  0
 39 37  1  0
 40 39  1  0
 41 40  1  0
 41  1  1  0
 42  3  1  0
 42  2  1  0
 43 36  1  0
 44 43  1  0
 45 43  1  0
 46 43  1  0
M  END
$$$$
