
     RDKit          3D

 46 51  0  0  0  0  0  0  0  0999 V2000
   -2.9337   19.8392   -1.9902 C   0  0  0  0  0  0  0  0  0  0  0  0
   -2.1860   18.8665   -2.8017 N   0  0  0  0  0  0  0  0  0  0  0  0
   -2.6645   17.9442   -3.6181 C   0  0  0  0  0  0  0  0  0  0  0  0
   -3.8867   17.7439   -3.8399 O   0  0  0  0  0  0  0  0  0  0  0  0
   -1.6700   17.2389   -4.1878 N   0  0  0  0  0  0  0  0  0  0  0  0
   -0.4976   17.7443   -3.7041 C   0  0  0  0  0  0  0  0  0  0  0  0
    0.8308   17.4369   -3.9161 C   0  0  0  0  0  0  0  0  0  0  0  0
    1.7824   18.1709   -3.2431 C   0  0  0  0  0  0  0  0  0  0  0  0
    3.4677   17.8099   -3.4870 Cl  0  0  0  0  0  0  0  0  0  0  0  0
    1.4345   19.1843   -2.3810 C   0  0  0  0  0  0  0  0  0  0  0  0
    0.1292   19.5046   -2.1567 C   0  0  0  0  0  0  0  0  0  0  0  0
   -0.8394   18.7619   -2.8381 C   0  0  0  0  0  0  0  0  0  0  0  0
   -1.8019   16.1639   -5.1200 C   0  0  2  0  0  0  0  0  0  0  0  0
   -0.9952   14.9300   -4.7177 C   0  0  0  0  0  0  0  0  0  0  0  0
   -1.6173   13.7773   -5.5041 C   0  0  0  0  0  0  0  0  0  0  0  0
   -1.5323   14.0488   -6.9068 N   0  0  0  0  0  0  0  0  0  0  0  0
   -2.7085   13.6728   -7.6451 C   0  0  0  0  0  0  0  0  0  0  0  0
   -2.9878   12.1887   -7.5716 C   0  0  0  0  0  0  0  0  0  0  0  0
   -4.2258   11.8997   -8.3914 C   0  0  0  0  0  0  0  0  0  0  0  0
   -5.3282   11.4017   -7.6023 N   0  0  0  0  0  0  0  0  0  0  0  0
   -6.4929   12.0673   -7.5211 C   0  0  0  0  0  0  0  0  0  0  0  0
   -7.5435   11.6019   -6.7733 C   0  0  0  0  0  0  0  0  0  0  0  0
   -7.3981   10.4381   -6.0994 N   0  0  0  0  0  0  0  0  0  0  0  0
   -6.2509    9.7421   -6.1538 C   0  0  0  0  0  0  0  0  0  0  0  0
   -5.2269   10.2341   -6.9071 C   0  0  0  0  0  0  0  0  0  0  0  0
   -4.1557    9.5750   -6.9521 O   0  0  0  0  0  0  0  0  0  0  0  0
   -6.1398    8.4866   -5.4059 C   0  0  0  0  0  0  0  0  0  0  0  0
   -5.1096    7.6008   -5.6732 C   0  0  0  0  0  0  0  0  0  0  0  0
   -5.0004    6.4149   -4.9687 C   0  0  0  0  0  0  0  0  0  0  0  0
   -5.9021    6.0731   -3.9855 C   0  0  0  0  0  0  0  0  0  0  0  0
   -5.8099    4.6013   -3.0761 Cl  0  0  0  0  0  0  0  0  0  0  0  0
   -6.9292    6.9709   -3.7290 C   0  0  0  0  0  0  0  0  0  0  0  0
   -7.0429    8.1497   -4.4246 C   0  0  0  0  0  0  0  0  0  0  0  0
   -7.8987    6.6373   -2.6824 C   0  0  0  0  0  0  0  0  0  0  0  0
   -8.3541    7.9001   -2.0766 N   0  0  0  0  0  0  0  0  0  0  0  0
   -9.6977    8.3344   -2.1101 C   0  0  0  0  0  0  0  0  0  0  0  0
  -10.5593    7.6401   -2.7400 O   0  0  0  0  0  0  0  0  0  0  0  0
  -10.1590    9.5473   -1.4564 C   0  0  0  0  0  0  0  0  0  0  0  0
  -11.2734    9.5021   -0.6177 C   0  0  0  0  0  0  0  0  0  0  0  0
  -11.7554   10.6196    0.0286 C   0  0  0  0  0  0  0  0  0  0  0  0
  -11.1412   11.8415   -0.1353 C   0  0  0  0  0  0  0  0  0  0  0  0
  -11.5724   12.9775    0.4774 F   0  0  0  0  0  0  0  0  0  0  0  0
  -10.0401   11.9293   -0.9533 C   0  0  0  0  0  0  0  0  0  0  0  0
   -9.5732   10.7805   -1.5958 C   0  0  0  0  0  0  0  0  0  0  0  0
   -0.9594   15.2957   -7.2592 C   0  0  0  0  0  0  0  0  0  0  0  0
   -1.5293   16.4981   -6.5447 C   0  0  0  0  0  0  0  0  0  0  0  0
  1  2  1  0
  2  3  1  0
  3  4  2  0
  3  5  1  0
  5  6  1  0
  6  7  2  0
  7  8  1  0
  8  9  1  0
  8 10  2  0
 10 11  1  0
 11 12  2  0
 13  5  1  1
 13 14  1  0
 14 15  1  0
 15 16  1  0
 16 17  1  0
 17 18  1  0
 18 19  1  0
 19 20  1  0
 20 21  1  0
 21 22  2  0
 22 23  1  0
 23 24  2  0
 24 25  1  0
 25 26  2  0
 24 27  1  0
 27 28  2  0
 28 29  1  0
 29 30  2  0
 30 31  1  0
 30 32  1  0
 32 33  2  0
 32 34  1  0
 34 35  1  0
 35 36  1  0
 36 37  2  0
 36 38  1  0
 38 39  2  0
 39 40  1  0
 40 41  2  0
 41 42  1  0
 41 43  1  0
 43 44  2  0
 16 45  1  0
 45 46  1  0
 12  2  1  0
 12  6  1  0
 46 13  1  0
 25 20  1  0
 33 27  1  0
 44 38  1  0
M  END
$$$$
