
     RDKit          3D

 46 51  0  0  0  0  0  0  0  0999 V2000
   -5.9069   16.4435   -5.5017 C   0  0  0  0  0  0  0  0  0  0  0  0
   -5.0445   15.0612   -6.1513 S   0  0  2  0  0  6  0  0  0  0  0  0
   -4.5730   14.2020   -5.0076 O   0  0  0  0  0  0  0  0  0  0  0  0
   -3.8603   15.4640   -6.9611 O   0  0  0  0  0  0  0  0  0  0  0  0
   -6.0084   14.0278   -7.1462 N   0  0  0  0  0  0  0  0  0  0  0  0
   -5.9937   14.3437   -8.5156 C   0  0  0  0  0  0  0  0  0  0  0  0
   -5.0302   13.6428   -9.3944 C   0  0  0  0  0  0  0  0  0  0  0  0
   -4.8063   12.2389   -8.9611 C   0  0  0  0  0  0  0  0  0  0  0  0
   -5.2884   11.7581   -7.7769 C   0  0  0  0  0  0  0  0  0  0  0  0
   -5.9344   12.6697   -6.7585 C   0  0  0  0  0  0  0  0  0  0  0  0
   -4.9993   10.4208   -7.6962 C   0  0  0  0  0  0  0  0  0  0  0  0
   -4.3321   10.1537   -8.8803 N   0  0  0  0  0  0  0  0  0  0  0  0
   -4.2116   11.2175   -9.6284 N   0  0  0  0  0  0  0  0  0  0  0  0
   -3.4089   11.2687  -10.7983 C   0  0  0  0  0  0  0  0  0  0  0  0
   -2.1519   10.4856  -10.7841 C   0  0  0  0  0  0  0  0  0  0  0  0
   -0.9580   11.3802  -11.2241 C   0  0  0  0  0  0  0  0  0  0  0  0
   -0.5387   12.1099  -10.0532 N   0  0  0  0  0  0  0  0  0  0  0  0
    0.2938   13.2837  -10.3674 C   0  0  0  0  0  0  0  0  0  0  0  0
    1.2818   12.9121  -11.4121 C   0  0  0  0  0  0  0  0  0  0  0  0
    1.7620   11.6408  -11.2297 O   0  0  0  0  0  0  0  0  0  0  0  0
    1.7394   11.2475   -9.9209 C   0  0  0  0  0  0  0  0  0  0  0  0
    0.3881   11.2228   -9.2697 C   0  0  0  0  0  0  0  0  0  0  0  0
   -5.1706    9.4203   -6.6949 C   0  0  0  0  0  0  0  0  0  0  0  0
   -4.1521    8.3556   -6.5941 C   0  0  0  0  0  0  0  0  0  0  0  0
   -4.2785    7.4289   -5.6476 C   0  0  0  0  0  0  0  0  0  0  0  0
   -5.2509    7.2988   -4.7061 C   0  0  0  0  0  0  0  0  0  0  0  0
   -5.3142    6.0393   -3.5526 Cl  0  0  0  0  0  0  0  0  0  0  0  0
   -6.2610    8.3337   -4.7786 C   0  0  0  0  0  0  0  0  0  0  0  0
   -7.2690    8.3244   -3.8283 C   0  0  0  0  0  0  0  0  0  0  0  0
   -8.2149    8.2987   -2.9319 C   0  0  0  0  0  0  0  0  0  0  0  0
   -9.2448    8.2498   -1.9360 C   0  0  0  0  0  0  0  0  0  0  0  0
  -10.4099    7.4605   -2.1180 C   0  0  0  0  0  0  0  0  0  0  0  0
  -11.3464    7.6393   -1.1345 C   0  0  0  0  0  0  0  0  0  0  0  0
  -11.2887    8.4556   -0.0600 C   0  0  0  0  0  0  0  0  0  0  0  0
  -10.1693    9.2207    0.1161 C   0  0  0  0  0  0  0  0  0  0  0  0
   -9.1486    9.0989   -0.8428 C   0  0  0  0  0  0  0  0  0  0  0  0
   -9.9970   10.1634    1.2144 C   0  0  0  0  0  0  0  0  0  0  0  0
   -9.6121   11.4822    0.8571 N   0  0  0  0  0  0  0  0  0  0  0  0
  -10.6252   12.1909    0.0289 C   0  0  0  0  0  0  0  0  0  0  0  0
  -10.1611   13.5769   -0.1732 C   0  0  0  0  0  0  0  0  0  0  0  0
   -9.0239   14.1180    0.4561 C   0  0  0  0  0  0  0  0  0  0  0  0
   -8.6431   15.4165    0.2536 C   0  0  0  0  0  0  0  0  0  0  0  0
   -9.4044   16.1848   -0.5828 C   0  0  0  0  0  0  0  0  0  0  0  0
  -10.5347   15.7337   -1.2509 C   0  0  0  0  0  0  0  0  0  0  0  0
  -10.8783   14.4257   -1.0192 C   0  0  0  0  0  0  0  0  0  0  0  0
   -6.0988    9.2324   -5.7339 C   0  0  0  0  0  0  0  0  0  0  0  0
  2  1  1  1
  2  3  2  0
  2  4  2  0
  2  5  1  0
  5  6  1  0
  6  7  1  0
  7  8  1  0
  8  9  2  0
  9 10  1  0
  9 11  1  0
 11 12  2  0
 12 13  1  0
 13 14  1  0
 14 15  1  0
 15 16  1  0
 16 17  1  0
 17 18  1  0
 18 19  1  0
 19 20  1  0
 20 21  1  0
 21 22  1  0
 11 23  1  0
 23 24  2  0
 24 25  1  0
 25 26  2  0
 26 27  1  0
 26 28  1  0
 28 29  1  0
 29 30  3  0
 30 31  1  0
 31 32  2  0
 32 33  1  0
 33 34  2  0
 34 35  1  0
 35 36  2  0
 35 37  1  0
 37 38  1  0
 38 39  1  0
 39 40  1  0
 40 41  2  0
 41 42  1  0
 42 43  2  0
 43 44  1  0
 44 45  2  0
 28 46  2  0
 10  5  1  0
 13  8  1  0
 22 17  1  0
 46 23  1  0
 36 31  1  0
 45 40  1  0
M  END
$$$$
