
     RDKit          3D

 43 47  0  0  0  0  0  0  0  0999 V2000
   -7.3493    4.8394   -1.5509 O   0  0  0  0  0  0  0  0  0  0  0  0
   -7.4528    6.0853   -1.3255 C   0  0  0  0  0  0  0  0  0  0  0  0
   -8.4644    6.5460   -0.3512 C   0  0  0  0  0  0  0  0  0  0  0  0
   -9.7139    6.6322   -0.9498 O   0  0  0  0  0  0  0  0  0  0  0  0
   -6.5895    6.9543   -2.0243 N   0  0  0  0  0  0  0  0  0  0  0  0
   -5.5534    6.4693   -2.8975 C   0  0  0  0  0  0  0  0  0  0  0  0
   -5.6924    6.9751   -4.2914 C   0  0  0  0  0  0  0  0  0  0  0  0
   -6.3996    8.2841   -4.3456 C   0  0  0  0  0  0  0  0  0  0  0  0
   -6.8878    8.9399   -3.2441 C   0  0  0  0  0  0  0  0  0  0  0  0
   -6.7410    8.3808   -1.8634 C   0  0  0  0  0  0  0  0  0  0  0  0
   -7.4796   10.1067   -3.6975 C   0  0  0  0  0  0  0  0  0  0  0  0
   -7.3356   10.1190   -5.0139 N   0  0  0  0  0  0  0  0  0  0  0  0
   -6.6940    9.0461   -5.4414 N   0  0  0  0  0  0  0  0  0  0  0  0
   -6.3166    8.6680   -6.7905 C   0  0  0  0  0  0  0  0  0  0  0  0
   -5.0083    9.2836   -7.2280 C   0  0  1  0  0  0  0  0  0  0  0  0
   -3.9718    8.4464   -6.8587 O   0  0  0  0  0  0  0  0  0  0  0  0
   -5.0428    9.4234   -8.7192 C   0  0  0  0  0  0  0  0  0  0  0  0
   -4.1249   10.3270   -9.2879 N   0  0  0  0  0  0  0  0  0  0  0  0
   -3.8925   10.2825  -10.6804 C   0  0  0  0  0  0  0  0  0  0  0  0
   -3.0785   11.5266  -11.0652 C   0  0  0  0  0  0  0  0  0  0  0  0
   -3.8358   12.7978  -10.7383 C   0  0  0  0  0  0  0  0  0  0  0  0
   -4.5016   12.6854   -9.3712 C   0  0  0  0  0  0  0  0  0  0  0  0
   -3.8465   11.5339   -8.6031 C   0  0  0  0  0  0  0  0  0  0  0  0
   -8.1278   11.0911   -2.7968 C   0  0  0  0  0  0  0  0  0  0  0  0
   -9.2448   10.6607   -2.0881 C   0  0  0  0  0  0  0  0  0  0  0  0
   -9.8500   11.5707   -1.2589 C   0  0  0  0  0  0  0  0  0  0  0  0
   -9.3926   12.8788   -1.1079 C   0  0  0  0  0  0  0  0  0  0  0  0
   -8.2945   13.2594   -1.8190 C   0  0  0  0  0  0  0  0  0  0  0  0
   -7.6716   12.3665   -2.6565 C   0  0  0  0  0  0  0  0  0  0  0  0
   -7.6822   14.9057   -1.7385 S   0  0  0  0  0  0  0  0  0  0  0  0
   -6.7707   15.4818   -3.1414 C   0  0  0  0  0  0  0  0  0  0  0  0
   -6.1448   16.7994   -3.1344 C   0  0  0  0  0  0  0  0  0  0  0  0
   -4.7514   16.8886   -3.3784 N   0  0  0  0  0  0  0  0  0  0  0  0
   -3.9328   15.9993   -2.6081 C   0  0  0  0  0  0  0  0  0  0  0  0
   -2.7199   15.6489   -3.4367 C   0  0  0  0  0  0  0  0  0  0  0  0
   -2.2191   16.9005   -4.0971 C   0  0  1  0  0  0  0  0  0  0  0  0
   -2.3904   16.8827   -5.4612 F   0  0  0  0  0  0  0  0  0  0  0  0
   -2.7391   18.1718   -3.4904 C   0  0  0  0  0  0  0  0  0  0  0  0
   -4.2426   18.2334   -3.3874 C   0  0  0  0  0  0  0  0  0  0  0  0
  -10.1531   13.8065   -0.1946 C   0  0  1  0  0  0  0  0  0  0  0  0
   -9.3541   14.6731    0.4646 F   0  0  0  0  0  0  0  0  0  0  0  0
  -11.0386   14.5828   -0.9571 F   0  0  0  0  0  0  0  0  0  0  0  0
  -10.9382   13.0719    0.6499 F   0  0  0  0  0  0  0  0  0  0  0  0
  1  2  2  0
  2  3  1  0
  3  4  1  0
  2  5  1  0
  5  6  1  0
  6  7  1  0
  7  8  1  0
  8  9  2  0
  9 10  1  0
  9 11  1  0
 11 12  2  0
 12 13  1  0
 13 14  1  0
 14 15  1  0
 15 16  1  6
 15 17  1  0
 17 18  1  0
 18 19  1  0
 19 20  1  0
 20 21  1  0
 21 22  1  0
 22 23  1  0
 11 24  1  0
 24 25  2  0
 25 26  1  0
 26 27  2  0
 27 28  1  0
 28 29  2  0
 28 30  1  0
 30 31  1  0
 31 32  1  0
 32 33  1  0
 33 34  1  0
 34 35  1  0
 35 36  1  0
 36 37  1  6
 36 38  1  0
 38 39  1  0
 27 40  1  0
 40 41  1  1
 40 42  1  0
 40 43  1  0
 10  5  1  0
 13  8  1  0
 23 18  1  0
 29 24  1  0
 39 33  1  0
M  END
$$$$
