
     RDKit          3D

 52 56  0  0  0  0  0  0  0  0999 V2000
   -8.6705   13.7827   -0.1975 C   0  0  0  0  0  0  0  0  0  0  0  0
   -9.0793   12.5262   -0.8823 C   0  0  0  0  0  0  0  0  0  0  0  0
  -10.5146   12.1977   -0.9693 C   0  0  0  0  0  0  0  0  0  0  0  0
   -8.1313   11.7575   -1.3839 C   0  0  0  0  0  0  0  0  0  0  0  0
   -8.4879   10.4979   -2.0122 C   0  0  0  0  0  0  0  0  0  0  0  0
   -9.6123    9.9956   -1.8147 O   0  0  0  0  0  0  0  0  0  0  0  0
   -7.5311    9.8354   -2.8653 N   0  0  0  0  0  0  0  0  0  0  0  0
   -7.4831    8.3917   -2.9278 C   0  0  0  0  0  0  0  0  0  0  0  0
   -6.3438    8.0491   -3.8198 C   0  0  0  0  0  0  0  0  0  0  0  0
   -5.9943    9.0049   -4.7973 C   0  0  0  0  0  0  0  0  0  0  0  0
   -4.9243    8.8072   -5.6321 C   0  0  0  0  0  0  0  0  0  0  0  0
   -4.2086    7.6302   -5.4729 C   0  0  0  0  0  0  0  0  0  0  0  0
   -4.5434    6.6908   -4.5227 C   0  0  0  0  0  0  0  0  0  0  0  0
   -5.6378    6.9014   -3.6731 C   0  0  0  0  0  0  0  0  0  0  0  0
   -5.9912    5.8813   -2.6485 C   0  0  2  0  0  0  0  0  0  0  0  0
   -5.0553    4.8295   -2.6877 F   0  0  0  0  0  0  0  0  0  0  0  0
   -7.2088    5.2884   -2.8544 F   0  0  0  0  0  0  0  0  0  0  0  0
   -5.9370    6.3503   -1.3594 F   0  0  0  0  0  0  0  0  0  0  0  0
   -4.4865    9.7890   -6.6391 C   0  0  0  0  0  0  0  0  0  0  0  0
   -3.2831   10.1937   -7.0192 N   0  0  0  0  0  0  0  0  0  0  0  0
   -3.3095   11.0682   -7.9917 N   0  0  0  0  0  0  0  0  0  0  0  0
   -2.1620   11.6808   -8.6025 C   0  0  0  0  0  0  0  0  0  0  0  0
   -1.7564   12.8715   -7.7266 C   0  0  0  0  0  0  0  0  0  0  0  0
   -1.4065   14.0728   -8.5783 C   0  0  0  0  0  0  0  0  0  0  0  0
   -0.6360   14.9827   -7.8128 N   0  0  0  0  0  0  0  0  0  0  0  0
   -0.0701   14.5209   -6.5972 C   0  0  0  0  0  0  0  0  0  0  0  0
    0.1214   15.7575   -5.7039 C   0  0  0  0  0  0  0  0  0  0  0  0
    0.9927   16.6005   -6.3782 O   0  0  0  0  0  0  0  0  0  0  0  0
    0.5250   17.0462   -7.5901 C   0  0  0  0  0  0  0  0  0  0  0  0
    0.1898   15.8928   -8.5420 C   0  0  0  0  0  0  0  0  0  0  0  0
   -4.6162   11.2765   -8.2989 C   0  0  0  0  0  0  0  0  0  0  0  0
   -5.2030   12.1534   -9.3664 C   0  0  0  0  0  0  0  0  0  0  0  0
   -6.7015   12.2235   -9.1608 C   0  0  0  0  0  0  0  0  0  0  0  0
   -7.1956   10.9107   -8.9096 N   0  0  0  0  0  0  0  0  0  0  0  0
   -6.8432   10.4400   -7.5024 C   0  0  0  0  0  0  0  0  0  0  0  0
   -5.3734   10.4915   -7.4681 C   0  0  0  0  0  0  0  0  0  0  0  0
   -7.9072   10.0632   -9.7027 C   0  0  0  0  0  0  0  0  0  0  0  0
   -7.2287    9.9216  -10.9078 O   0  0  0  0  0  0  0  0  0  0  0  0
   -9.0888    9.2653   -9.7577 C   0  0  0  0  0  0  0  0  0  0  0  0
  -10.1475    9.2940   -8.7242 C   0  0  2  0  0  0  0  0  0  0  0  0
  -11.2031    8.2818   -8.9335 C   0  0  0  0  0  0  0  0  0  0  0  0
  -12.5719    8.7533   -8.4332 C   0  0  0  0  0  0  0  0  0  0  0  0
  -12.9229    9.9933   -9.0772 N   0  0  0  0  0  0  0  0  0  0  0  0
  -11.8607   10.9061   -9.4401 C   0  0  0  0  0  0  0  0  0  0  0  0
  -10.6820   10.7100   -8.4939 C   0  0  0  0  0  0  0  0  0  0  0  0
  -14.2631   10.3384   -9.3612 C   0  0  0  0  0  0  0  0  0  0  0  0
  -14.5629   11.4224   -9.9366 O   0  0  0  0  0  0  0  0  0  0  0  0
  -15.2615    9.4612   -8.9970 O   0  0  0  0  0  0  0  0  0  0  0  0
  -16.2412    9.8257   -8.0698 C   0  0  2  0  0  0  0  0  0  0  0  0
  -15.6244   10.7030   -7.0202 C   0  0  0  0  0  0  0  0  0  0  0  0
  -16.8577    8.5577   -7.4996 C   0  0  0  0  0  0  0  0  0  0  0  0
  -17.3251   10.5754   -8.8579 C   0  0  0  0  0  0  0  0  0  0  0  0
  1  2  1  0
  2  3  1  0
  2  4  2  3
  4  5  1  0
  5  6  2  0
  5  7  1  0
  7  8  1  0
  8  9  1  0
  9 10  2  0
 10 11  1  0
 11 12  2  0
 12 13  1  0
 13 14  2  0
 14 15  1  0
 15 16  1  1
 15 17  1  0
 15 18  1  0
 11 19  1  0
 19 20  2  0
 20 21  1  0
 21 22  1  0
 22 23  1  0
 23 24  1  0
 24 25  1  0
 25 26  1  0
 26 27  1  0
 27 28  1  0
 28 29  1  0
 29 30  1  0
 21 31  1  0
 31 32  1  0
 32 33  1  0
 33 34  1  0
 34 35  1  0
 35 36  1  0
 34 37  1  0
 37 38  2  0
 37 39  1  0
 40 39  1  6
 40 41  1  0
 41 42  1  0
 42 43  1  0
 43 44  1  0
 44 45  1  0
 43 46  1  0
 46 47  2  0
 46 48  1  0
 48 49  1  0
 49 50  1  1
 49 51  1  0
 49 52  1  0
 14  9  1  0
 36 19  1  0
 30 25  1  0
 36 31  2  0
 45 40  1  0
M  END
$$$$
