
     RDKit          3D

 46 50  0  0  0  0  0  0  0  0999 V2000
  -10.5887   12.7061   -9.2754 C   0  0  0  0  0  0  0  0  0  0  0  0
   -9.1286   12.3577   -9.4703 C   0  0  0  0  0  0  0  0  0  0  0  0
   -8.9248   10.8973   -9.7905 C   0  0  0  0  0  0  0  0  0  0  0  0
   -7.8631   10.4223   -8.8979 N   0  0  0  0  0  0  0  0  0  0  0  0
   -7.9816    9.6671   -7.8273 N   0  0  0  0  0  0  0  0  0  0  0  0
   -6.8027    9.4153   -7.2388 C   0  0  0  0  0  0  0  0  0  0  0  0
   -5.8581   10.0635   -7.9966 C   0  0  0  0  0  0  0  0  0  0  0  0
   -4.3858   10.1814   -7.8767 C   0  0  0  0  0  0  0  0  0  0  0  0
   -3.7666   10.6936   -9.0756 N   0  0  0  0  0  0  0  0  0  0  0  0
   -4.5029   10.8384  -10.3203 C   0  0  0  0  0  0  0  0  0  0  0  0
   -5.8469   11.4860  -10.0562 C   0  0  0  0  0  0  0  0  0  0  0  0
   -6.5360   10.6806   -9.0193 C   0  0  0  0  0  0  0  0  0  0  0  0
   -2.4023   11.0686   -9.0432 C   0  0  0  0  0  0  0  0  0  0  0  0
   -1.7812   11.2761  -10.1053 O   0  0  0  0  0  0  0  0  0  0  0  0
   -1.7136   11.2145   -7.7485 C   0  0  0  0  0  0  0  0  0  0  0  0
   -1.0607   12.5365   -7.5089 C   0  0  1  0  0  0  0  0  0  0  0  0
   -2.0753   13.6170   -7.3730 C   0  0  0  0  0  0  0  0  0  0  0  0
   -1.4799   14.9363   -6.8716 C   0  0  0  0  0  0  0  0  0  0  0  0
   -0.6006   14.6874   -5.7611 N   0  0  0  0  0  0  0  0  0  0  0  0
    0.4638   13.7254   -5.9323 C   0  0  0  0  0  0  0  0  0  0  0  0
   -0.1900   12.4131   -6.2751 C   0  0  0  0  0  0  0  0  0  0  0  0
   -0.7700   15.3625   -4.5352 C   0  0  0  0  0  0  0  0  0  0  0  0
   -0.0199   15.0693   -3.5728 O   0  0  0  0  0  0  0  0  0  0  0  0
   -1.8237   16.4203   -4.3565 C   0  0  0  0  0  0  0  0  0  0  0  0
   -1.2732   17.7305   -4.5312 N   0  0  0  0  0  0  0  0  0  0  0  0
    0.1541   17.6807   -4.6991 C   0  0  0  0  0  0  0  0  0  0  0  0
   -1.6528   18.5938   -3.4346 C   0  0  0  0  0  0  0  0  0  0  0  0
   -6.5488    8.6165   -6.0356 C   0  0  0  0  0  0  0  0  0  0  0  0
   -5.4406    7.8107   -5.9004 C   0  0  0  0  0  0  0  0  0  0  0  0
   -5.2218    7.0662   -4.7624 C   0  0  0  0  0  0  0  0  0  0  0  0
   -6.1042    7.0878   -3.6933 C   0  0  0  0  0  0  0  0  0  0  0  0
   -7.2192    7.8890   -3.8114 C   0  0  0  0  0  0  0  0  0  0  0  0
   -7.4309    8.6307   -4.9526 C   0  0  0  0  0  0  0  0  0  0  0  0
   -8.3794    7.9709   -2.4581 S   0  0  0  0  0  0  0  0  0  0  0  0
   -9.8449    8.9223   -2.8110 C   0  0  0  0  0  0  0  0  0  0  0  0
  -10.7525    9.1895   -1.6708 C   0  0  0  0  0  0  0  0  0  0  0  0
  -10.9748   10.5050   -1.2605 N   0  0  0  0  0  0  0  0  0  0  0  0
  -10.9912   11.5693   -2.1718 C   0  0  0  0  0  0  0  0  0  0  0  0
  -10.9431   12.9395   -1.5266 C   0  0  0  0  0  0  0  0  0  0  0  0
  -11.9385   13.1458   -0.4402 C   0  0  0  0  0  0  0  0  0  0  0  0
  -12.6919   11.8562   -0.2131 C   0  0  0  0  0  0  0  0  0  0  0  0
  -11.7505   10.6815   -0.0750 C   0  0  0  0  0  0  0  0  0  0  0  0
   -5.8030    6.2669   -2.4853 C   0  0  2  0  0  0  0  0  0  0  0  0
   -6.7193    5.2169   -2.3956 F   0  0  0  0  0  0  0  0  0  0  0  0
   -5.8163    6.9864   -1.3301 F   0  0  0  0  0  0  0  0  0  0  0  0
   -4.5528    5.6582   -2.5973 F   0  0  0  0  0  0  0  0  0  0  0  0
  1  2  1  0
  2  3  1  0
  3  4  1  0
  4  5  1  0
  5  6  2  0
  6  7  1  0
  7  8  1  0
  8  9  1  0
  9 10  1  0
 10 11  1  0
 11 12  1  0
  9 13  1  0
 13 14  2  0
 13 15  1  0
 16 15  1  1
 16 17  1  0
 17 18  1  0
 18 19  1  0
 19 20  1  0
 20 21  1  0
 19 22  1  0
 22 23  2  0
 22 24  1  0
 24 25  1  0
 25 26  1  0
 25 27  1  0
  6 28  1  0
 28 29  2  0
 29 30  1  0
 30 31  2  0
 31 32  1  0
 32 33  2  0
 32 34  1  0
 34 35  1  0
 35 36  1  0
 36 37  1  0
 37 38  1  0
 38 39  1  0
 39 40  1  0
 40 41  1  0
 41 42  1  0
 31 43  1  0
 43 44  1  1
 43 45  1  0
 43 46  1  0
 12  4  1  0
 12  7  2  0
 21 16  1  0
 33 28  1  0
 42 37  1  0
M  END
$$$$
