
     RDKit          3D

 43 48  0  0  0  0  0  0  0  0999 V2000
  -12.2283    9.7849  -10.1537 F   0  0  0  0  0  0  0  0  0  0  0  0
  -11.1640    9.1811  -10.7974 C   0  0  2  0  0  0  0  0  0  0  0  0
  -10.9586    9.7452  -12.0285 F   0  0  0  0  0  0  0  0  0  0  0  0
  -11.4657    7.8313  -10.9337 F   0  0  0  0  0  0  0  0  0  0  0  0
   -9.9548    9.3280   -9.9484 C   0  0  0  0  0  0  0  0  0  0  0  0
  -10.1266    9.3305   -8.5725 C   0  0  0  0  0  0  0  0  0  0  0  0
   -9.0219    9.4662   -7.7368 C   0  0  0  0  0  0  0  0  0  0  0  0
   -7.7986    9.5931   -8.3078 C   0  0  0  0  0  0  0  0  0  0  0  0
   -7.6298    9.5898   -9.6987 C   0  0  0  0  0  0  0  0  0  0  0  0
   -8.7107    9.4567  -10.5281 C   0  0  0  0  0  0  0  0  0  0  0  0
   -6.5471    9.7515   -7.5577 C   0  0  0  0  0  0  0  0  0  0  0  0
   -5.3393   10.0731   -8.0568 N   0  0  0  0  0  0  0  0  0  0  0  0
   -4.4176   10.1493   -7.1161 N   0  0  0  0  0  0  0  0  0  0  0  0
   -5.0407    9.8699   -5.9726 C   0  0  0  0  0  0  0  0  0  0  0  0
   -6.3739    9.6137   -6.1938 C   0  0  0  0  0  0  0  0  0  0  0  0
   -4.5770    9.7874   -4.5506 C   0  0  0  0  0  0  0  0  0  0  0  0
   -5.2234    8.6563   -3.8239 C   0  0  0  0  0  0  0  0  0  0  0  0
   -6.5736    8.3983   -4.1575 N   0  0  0  0  0  0  0  0  0  0  0  0
   -7.2325    9.2915   -5.0356 C   0  0  0  0  0  0  0  0  0  0  0  0
   -6.7426    6.7807   -4.7212 S   0  0  2  0  0  6  0  0  0  0  0  0
   -5.5079    5.9640   -4.5092 O   0  0  0  0  0  0  0  0  0  0  0  0
   -7.0509    6.7800   -6.2142 O   0  0  0  0  0  0  0  0  0  0  0  0
   -8.1337    6.0807   -3.8509 C   0  0  0  0  0  0  0  0  0  0  0  0
   -3.0008   10.4777   -7.3096 C   0  0  0  0  0  0  0  0  0  0  0  0
   -2.8970   11.8825   -7.8762 C   0  0  2  0  0  0  0  0  0  0  0  0
   -1.6603   12.1433   -8.4117 O   0  0  0  0  0  0  0  0  0  0  0  0
   -3.3069   12.8863   -6.8232 C   0  0  0  0  0  0  0  0  0  0  0  0
   -2.3816   13.9820   -6.7052 N   0  0  1  0  0  4  0  0  0  0  0  0
   -2.9612   15.1571   -6.1339 C   0  0  0  0  0  0  0  0  0  0  0  0
   -1.9146   16.2781   -6.1957 C   0  0  0  0  0  0  0  0  0  0  0  0
   -0.8940   15.9303   -5.1220 C   0  0  2  0  0  0  0  0  0  0  0  0
   -0.9583   14.4579   -4.7776 C   0  0  0  0  0  0  0  0  0  0  0  0
   -1.1961   13.6186   -5.9900 C   0  0  0  0  0  0  0  0  0  0  0  0
   -1.0659   16.7317   -3.8943 C   0  0  0  0  0  0  0  0  0  0  0  0
   -2.0781   16.6404   -2.9669 C   0  0  0  0  0  0  0  0  0  0  0  0
   -1.8884   17.5522   -1.9721 N   0  0  0  0  0  0  0  0  0  0  0  0
   -0.7428   18.2250   -2.2780 C   0  0  0  0  0  0  0  0  0  0  0  0
   -0.2151   17.7414   -3.4554 C   0  0  0  0  0  0  0  0  0  0  0  0
   -0.0840   19.2436   -1.6291 C   0  0  0  0  0  0  0  0  0  0  0  0
    1.0761   19.7511   -2.1662 C   0  0  0  0  0  0  0  0  0  0  0  0
    1.5433   19.2436   -3.3123 N   0  0  0  0  0  4  0  0  0  0  0  0
    2.7155   19.7673   -3.8412 O   0  0  0  0  0  1  0  0  0  0  0  0
    0.9476   18.2561   -3.9858 C   0  0  0  0  0  0  0  0  0  0  0  0
  2  1  1  1
  2  3  1  0
  2  4  1  0
  2  5  1  0
  5  6  2  0
  6  7  1  0
  7  8  2  0
  8  9  1  0
  9 10  2  0
  8 11  1  0
 11 12  2  0
 12 13  1  0
 13 14  1  0
 14 15  2  0
 14 16  1  0
 16 17  1  0
 17 18  1  0
 18 19  1  0
 18 20  1  0
 20 21  2  0
 20 22  2  0
 20 23  1  1
 13 24  1  0
 24 25  1  0
 25 26  1  1
 25 27  1  0
 28 27  1  1
 28 29  1  0
 29 30  1  0
 30 31  1  0
 31 32  1  0
 32 33  1  0
 31 34  1  1
 34 35  2  0
 35 36  1  0
 36 37  1  0
 37 38  2  0
 37 39  1  0
 39 40  2  0
 40 41  1  0
 41 42  1  0
 41 43  2  0
 10  5  1  0
 15 11  1  0
 19 15  1  0
 33 28  1  0
 38 34  1  0
 43 38  1  0
M  CHG  3  28   1  41   1  42  -1
M  END
$$$$
