
     RDKit          3D

 46 50  0  0  0  0  0  0  0  0999 V2000
   -3.9387   16.9088   -2.8272 C   0  0  0  0  0  0  0  0  0  0  0  0
   -3.1149   16.5427   -4.0205 C   0  0  2  0  0  0  0  0  0  0  0  0
   -2.7372   15.0502   -3.9035 C   0  0  0  0  0  0  0  0  0  0  0  0
   -1.8593   17.3389   -4.1242 C   0  0  0  0  0  0  0  0  0  0  0  0
   -3.9980   16.6106   -5.2609 C   0  0  2  0  0  0  0  0  0  0  0  0
   -5.1724   15.7149   -5.0709 C   0  0  0  0  0  0  0  0  0  0  0  0
   -5.6674   15.2920   -6.4106 C   0  0  0  0  0  0  0  0  0  0  0  0
   -4.6665   14.5852   -7.1938 N   0  0  0  0  0  0  0  0  0  0  0  0
   -5.2007   14.4329   -8.5462 C   0  0  0  0  0  0  0  0  0  0  0  0
   -5.2125   13.0136   -8.9870 C   0  0  0  0  0  0  0  0  0  0  0  0
   -6.3378   12.2244   -8.4084 C   0  0  0  0  0  0  0  0  0  0  0  0
   -5.8319   11.0952   -7.6611 N   0  0  0  0  0  0  0  0  0  0  0  0
   -6.5113   10.6257   -6.5885 N   0  0  0  0  0  0  0  0  0  0  0  0
   -5.8727    9.5751   -6.0646 C   0  0  0  0  0  0  0  0  0  0  0  0
   -4.7530    9.3797   -6.8344 C   0  0  0  0  0  0  0  0  0  0  0  0
   -3.6990    8.3888   -6.7234 C   0  0  0  0  0  0  0  0  0  0  0  0
   -2.5232    8.5495   -7.4976 N   0  0  0  0  0  0  0  0  0  0  0  0
   -2.3420    9.8830   -8.0467 C   0  0  0  0  0  0  0  0  0  0  0  0
   -3.6068   10.3138   -8.7769 C   0  0  0  0  0  0  0  0  0  0  0  0
   -4.7428   10.3350   -7.8235 C   0  0  0  0  0  0  0  0  0  0  0  0
   -1.1026    8.0434   -6.6736 S   0  0  1  0  0  6  0  0  0  0  0  0
   -0.8784    8.7967   -5.0961 C   0  0  0  0  0  0  0  0  0  0  0  0
   -1.2762    6.5505   -6.4317 O   0  0  0  0  0  0  0  0  0  0  0  0
    0.0748    8.2173   -7.5613 O   0  0  0  0  0  0  0  0  0  0  0  0
   -6.3116    8.8258   -4.9002 C   0  0  0  0  0  0  0  0  0  0  0  0
   -6.0821    7.4463   -4.7971 C   0  0  0  0  0  0  0  0  0  0  0  0
   -6.4827    6.7604   -3.7027 C   0  0  0  0  0  0  0  0  0  0  0  0
   -7.1348    7.3865   -2.6389 C   0  0  0  0  0  0  0  0  0  0  0  0
   -7.3732    8.7422   -2.7017 C   0  0  0  0  0  0  0  0  0  0  0  0
   -6.9515    9.4281   -3.8436 C   0  0  0  0  0  0  0  0  0  0  0  0
   -7.9249    9.5397   -1.6127 C   0  0  0  0  0  0  0  0  0  0  0  0
   -7.6120   10.8753   -1.4731 N   0  0  0  0  0  0  0  0  0  0  0  0
   -8.0018   11.7877   -0.5243 C   0  0  0  0  0  0  0  0  0  0  0  0
   -9.2982   12.4490   -0.5213 C   0  0  0  0  0  0  0  0  0  0  0  0
  -10.3688   12.0522    0.2553 C   0  0  0  0  0  0  0  0  0  0  0  0
  -11.5853   12.6653    0.2673 C   0  0  0  0  0  0  0  0  0  0  0  0
  -11.8003   13.7680   -0.5435 C   0  0  0  0  0  0  0  0  0  0  0  0
  -13.0252   14.3454   -0.4979 F   0  0  0  0  0  0  0  0  0  0  0  0
  -10.7739   14.1940   -1.3256 C   0  0  0  0  0  0  0  0  0  0  0  0
   -9.5493   13.5649   -1.3282 C   0  0  0  0  0  0  0  0  0  0  0  0
   -7.6662    6.5869   -1.5389 C   0  0  1  0  0  0  0  0  0  0  0  0
   -7.2022    6.8217   -0.2929 F   0  0  0  0  0  0  0  0  0  0  0  0
   -9.0788    6.6048   -1.5330 F   0  0  0  0  0  0  0  0  0  0  0  0
   -7.3791    5.2327   -1.8052 F   0  0  0  0  0  0  0  0  0  0  0  0
   -3.3659   15.1351   -7.1678 C   0  0  0  0  0  0  0  0  0  0  0  0
   -3.2220   16.4531   -6.5110 C   0  0  0  0  0  0  0  0  0  0  0  0
  2  1  1  1
  2  3  1  0
  2  4  1  0
  2  5  1  0
  5  6  1  1
  6  7  1  0
  7  8  1  0
  8  9  1  0
  9 10  1  0
 10 11  1  0
 11 12  1  0
 12 13  1  0
 13 14  2  0
 14 15  1  0
 15 16  1  0
 16 17  1  0
 17 18  1  0
 18 19  1  0
 19 20  1  0
 17 21  1  0
 21 22  1  1
 21 23  2  0
 21 24  2  0
 14 25  1  0
 25 26  2  0
 26 27  1  0
 27 28  2  0
 28 29  1  0
 29 30  2  0
 29 31  1  0
 31 32  1  0
 32 33  1  0
 33 34  1  0
 34 35  2  0
 35 36  1  0
 36 37  2  0
 37 38  1  0
 37 39  1  0
 39 40  2  0
 28 41  1  0
 41 42  1  1
 41 43  1  0
 41 44  1  0
  8 45  1  0
 45 46  1  0
 46  5  1  0
 20 12  1  0
 20 15  2  0
 30 25  1  0
 40 34  1  0
M  END
$$$$
