
     RDKit          3D

 45 49  0  0  0  0  0  0  0  0999 V2000
   -3.0900   15.3772   -5.3065 C   0  0  0  0  0  0  0  0  0  0  0  0
   -1.6552   15.8235   -5.3831 C   0  0  2  0  0  0  0  0  0  0  0  0
   -1.3899   16.9386   -4.3741 C   0  0  0  0  0  0  0  0  0  0  0  0
   -1.3624   16.4313   -6.7428 C   0  0  0  0  0  0  0  0  0  0  0  0
   -1.4816   15.4402   -7.8591 C   0  0  0  0  0  0  0  0  0  0  0  0
   -1.2831   14.0871   -7.5096 N   0  0  0  0  0  0  0  0  0  0  0  0
   -2.3255   13.1972   -7.8799 C   0  0  0  0  0  0  0  0  0  0  0  0
   -1.6815   11.8975   -8.3600 C   0  0  2  0  0  0  0  0  0  0  0  0
   -0.4054   12.1155   -8.8497 O   0  0  0  0  0  0  0  0  0  0  0  0
   -2.5842   11.2018   -9.3368 C   0  0  0  0  0  0  0  0  0  0  0  0
   -3.7451   10.6090   -8.7271 N   0  0  0  0  0  0  0  0  0  0  0  0
   -3.7700    9.7569   -7.6967 N   0  0  0  0  0  0  0  0  0  0  0  0
   -5.0417    9.4273   -7.4240 C   0  0  0  0  0  0  0  0  0  0  0  0
   -5.8318   10.1088   -8.3286 C   0  0  0  0  0  0  0  0  0  0  0  0
   -7.2859   10.1024   -8.4619 C   0  0  0  0  0  0  0  0  0  0  0  0
   -7.6706   10.5514   -9.7582 N   0  0  0  0  0  0  0  0  0  0  0  0
   -7.0567   11.7639  -10.1821 C   0  0  0  0  0  0  0  0  0  0  0  0
   -5.5655   11.7134  -10.2349 C   0  0  0  0  0  0  0  0  0  0  0  0
   -5.0183   10.8554   -9.1527 C   0  0  0  0  0  0  0  0  0  0  0  0
   -7.7308    9.3710  -10.9750 S   0  0  2  0  0  6  0  0  0  0  0  0
   -6.1307    8.7928  -11.4657 C   0  0  0  0  0  0  0  0  0  0  0  0
   -8.4548    9.8361  -12.2227 O   0  0  0  0  0  0  0  0  0  0  0  0
   -8.5130    8.1930  -10.4445 O   0  0  0  0  0  0  0  0  0  0  0  0
   -5.4944    8.5235   -6.3802 C   0  0  0  0  0  0  0  0  0  0  0  0
   -4.7746    7.3542   -6.0922 C   0  0  0  0  0  0  0  0  0  0  0  0
   -5.2086    6.5171   -5.1072 C   0  0  0  0  0  0  0  0  0  0  0  0
   -6.3416    6.7671   -4.3658 C   0  0  0  0  0  0  0  0  0  0  0  0
   -7.0711    7.9070   -4.6233 C   0  0  0  0  0  0  0  0  0  0  0  0
   -6.6150    8.7411   -5.6242 C   0  0  0  0  0  0  0  0  0  0  0  0
   -8.2795    8.2086   -3.8564 C   0  0  0  0  0  0  0  0  0  0  0  0
   -8.0928    9.0635   -2.7382 N   0  0  0  0  0  0  0  0  0  0  0  0
   -9.2774    9.5897   -2.1543 C   0  0  0  0  0  0  0  0  0  0  0  0
   -8.9578   10.9215   -1.5933 C   0  0  0  0  0  0  0  0  0  0  0  0
   -8.1179   11.8185   -2.2168 C   0  0  0  0  0  0  0  0  0  0  0  0
   -7.8326   13.0573   -1.6752 C   0  0  0  0  0  0  0  0  0  0  0  0
   -8.3937   13.4184   -0.4839 C   0  0  0  0  0  0  0  0  0  0  0  0
   -8.1598   14.6273    0.1163 F   0  0  0  0  0  0  0  0  0  0  0  0
   -9.2481   12.5420    0.1796 C   0  0  0  0  0  0  0  0  0  0  0  0
   -9.5156   11.2967   -0.3961 C   0  0  0  0  0  0  0  0  0  0  0  0
   -6.7334    5.8088   -3.3230 C   0  0  2  0  0  0  0  0  0  0  0  0
   -7.9766    5.2503   -3.5453 F   0  0  0  0  0  0  0  0  0  0  0  0
   -6.8047    6.4274   -2.0888 F   0  0  0  0  0  0  0  0  0  0  0  0
   -5.7656    4.8037   -3.1753 F   0  0  0  0  0  0  0  0  0  0  0  0
   -0.5438   13.7747   -6.3485 C   0  0  0  0  0  0  0  0  0  0  0  0
   -0.7485   14.6522   -5.1590 C   0  0  0  0  0  0  0  0  0  0  0  0
  2  1  1  6
  2  3  1  0
  2  4  1  0
  4  5  1  0
  5  6  1  0
  6  7  1  0
  7  8  1  0
  8  9  1  6
  8 10  1  0
 10 11  1  0
 11 12  1  0
 12 13  2  0
 13 14  1  0
 14 15  1  0
 15 16  1  0
 16 17  1  0
 17 18  1  0
 18 19  1  0
 16 20  1  0
 20 21  1  6
 20 22  2  0
 20 23  2  0
 13 24  1  0
 24 25  2  0
 25 26  1  0
 26 27  2  0
 27 28  1  0
 28 29  2  0
 28 30  1  0
 30 31  1  0
 31 32  1  0
 32 33  1  0
 33 34  2  0
 34 35  1  0
 35 36  2  0
 36 37  1  0
 36 38  1  0
 38 39  2  0
 27 40  1  0
 40 41  1  6
 40 42  1  0
 40 43  1  0
  6 44  1  0
 44 45  1  0
 45  2  1  0
 19 11  1  0
 19 14  2  0
 29 24  1  0
 39 33  1  0
M  END
$$$$
