
     RDKit          3D

 46 52  0  0  0  0  0  0  0  0999 V2000
    1.1656   16.1607   -3.1444 C   0  0  0  0  0  0  0  0  0  0  0  0
    0.1294   15.8994   -4.1133 N   0  0  0  0  0  0  0  0  0  0  0  0
    0.0742   14.8786   -5.0110 C   0  0  0  0  0  0  0  0  0  0  0  0
    0.9841   14.0159   -5.0777 O   0  0  0  0  0  0  0  0  0  0  0  0
   -1.0510   14.9972   -5.7264 N   0  0  0  0  0  0  0  0  0  0  0  0
   -1.7109   16.1073   -5.2711 C   0  0  0  0  0  0  0  0  0  0  0  0
   -2.9048   16.6595   -5.6717 C   0  0  0  0  0  0  0  0  0  0  0  0
   -3.3946   17.7926   -5.0740 C   0  0  0  0  0  0  0  0  0  0  0  0
   -2.6550   18.3645   -4.0581 C   0  0  0  0  0  0  0  0  0  0  0  0
   -1.4626   17.8135   -3.6574 C   0  0  0  0  0  0  0  0  0  0  0  0
   -0.9732   16.6683   -4.2653 C   0  0  0  0  0  0  0  0  0  0  0  0
   -1.4994   14.1126   -6.8024 C   0  0  2  0  0  0  0  0  0  0  0  0
   -2.9740   13.9745   -6.8184 C   0  0  0  0  0  0  0  0  0  0  0  0
   -3.4677   12.5867   -6.4241 C   0  0  0  0  0  0  0  0  0  0  0  0
   -2.8105   11.7071   -7.3894 N   0  0  0  0  0  0  0  0  0  0  0  0
   -3.4175   10.4011   -7.4087 C   0  0  0  0  0  0  0  0  0  0  0  0
   -4.8984   10.4930   -7.6786 C   0  0  0  0  0  0  0  0  0  0  0  0
   -5.5789    9.1897   -7.3076 C   0  0  0  0  0  0  0  0  0  0  0  0
   -6.1041    9.2621   -5.9428 N   0  0  0  0  0  0  0  0  0  0  0  0
   -6.9606   10.1859   -5.5324 N   0  0  0  0  0  0  0  0  0  0  0  0
   -7.2704   10.0167   -4.2333 C   0  0  0  0  0  0  0  0  0  0  0  0
   -6.5657    8.9233   -3.8055 C   0  0  0  0  0  0  0  0  0  0  0  0
   -6.3779    8.1473   -2.5554 C   0  0  0  0  0  0  0  0  0  0  0  0
   -6.2969    6.7338   -2.8617 N   0  0  0  0  0  0  0  0  0  0  0  0
   -5.5018    6.2086   -3.9452 C   0  0  0  0  0  0  0  0  0  0  0  0
   -4.9488    7.2824   -4.8369 C   0  0  0  0  0  0  0  0  0  0  0  0
   -5.8351    8.4648   -4.9100 C   0  0  0  0  0  0  0  0  0  0  0  0
   -7.0283    5.8243   -2.0629 C   0  0  0  0  0  0  0  0  0  0  0  0
   -7.1132    4.5843   -2.3638 O   0  0  0  0  0  0  0  0  0  0  0  0
   -7.7346    6.2255   -0.8464 C   0  0  0  0  0  0  0  0  0  0  0  0
   -7.2929    7.0674    0.1455 C   0  0  0  0  0  0  0  0  0  0  0  0
   -8.2461    7.1799    1.0944 N   0  0  0  0  0  0  0  0  0  0  0  0
   -9.2668    6.4101    0.6856 C   0  0  0  0  0  0  0  0  0  0  0  0
   -8.9671    5.8300   -0.4850 N   0  0  0  0  0  0  0  0  0  0  0  0
   -8.1538   10.8214   -3.3978 C   0  0  0  0  0  0  0  0  0  0  0  0
   -7.9968   12.2129   -3.3806 C   0  0  0  0  0  0  0  0  0  0  0  0
   -8.8021   13.0202   -2.6261 C   0  0  0  0  0  0  0  0  0  0  0  0
   -9.8124   12.5062   -1.8420 C   0  0  0  0  0  0  0  0  0  0  0  0
   -9.9570   11.1241   -1.8689 C   0  0  0  0  0  0  0  0  0  0  0  0
   -9.1521   10.2943   -2.6254 C   0  0  0  0  0  0  0  0  0  0  0  0
  -10.7007   13.3682   -1.0124 C   0  0  1  0  0  0  0  0  0  0  0  0
  -11.7594   13.7321   -1.8064 F   0  0  0  0  0  0  0  0  0  0  0  0
  -11.1722   12.6486    0.0713 F   0  0  0  0  0  0  0  0  0  0  0  0
   -9.9656   14.4553   -0.5913 F   0  0  0  0  0  0  0  0  0  0  0  0
   -1.4159   11.5863   -7.1198 C   0  0  0  0  0  0  0  0  0  0  0  0
   -0.6995   12.8511   -6.8451 C   0  0  0  0  0  0  0  0  0  0  0  0
  1  2  1  0
  2  3  1  0
  3  4  2  0
  3  5  1  0
  5  6  1  0
  6  7  2  0
  7  8  1  0
  8  9  2  0
  9 10  1  0
 10 11  2  0
 12  5  1  1
 12 13  1  0
 13 14  1  0
 14 15  1  0
 15 16  1  0
 16 17  1  0
 17 18  1  0
 18 19  1  0
 19 20  1  0
 20 21  2  0
 21 22  1  0
 22 23  1  0
 23 24  1  0
 24 25  1  0
 25 26  1  0
 26 27  1  0
 24 28  1  0
 28 29  2  0
 28 30  1  0
 30 31  2  0
 31 32  1  0
 32 33  1  0
 33 34  2  0
 21 35  1  0
 35 36  2  0
 36 37  1  0
 37 38  2  0
 38 39  1  0
 39 40  2  0
 38 41  1  0
 41 42  1  6
 41 43  1  0
 41 44  1  0
 15 45  1  0
 45 46  1  0
 11  2  1  0
 11  6  1  0
 46 12  1  0
 27 19  1  0
 27 22  2  0
 34 30  1  0
 40 35  1  0
M  END
$$$$
