
     RDKit          3D

 47 52  0  0  0  0  0  0  0  0999 V2000
   -7.9281   14.2240   -0.4494 C   0  0  0  0  0  0  0  0  0  0  0  0
   -8.6001   14.4110   -1.7901 C   0  0  0  0  0  0  0  0  0  0  0  0
  -10.0040   13.8539   -1.6886 C   0  0  0  0  0  0  0  0  0  0  0  0
   -9.9832   12.3894   -1.8294 N   0  0  0  0  0  0  0  0  0  0  0  0
   -9.9723   11.4904   -0.8501 N   0  0  0  0  0  0  0  0  0  0  0  0
   -9.9558   10.2277   -1.3983 C   0  0  0  0  0  0  0  0  0  0  0  0
   -9.9580   10.4023   -2.7418 C   0  0  0  0  0  0  0  0  0  0  0  0
   -9.9788    9.4721   -3.8700 C   0  0  0  0  0  0  0  0  0  0  0  0
   -9.3709    9.9957   -5.0704 N   0  0  0  0  0  0  0  0  0  0  0  0
   -8.8830   11.3446   -5.1134 C   0  0  0  0  0  0  0  0  0  0  0  0
   -9.9416   12.2247   -4.4398 C   0  0  0  0  0  0  0  0  0  0  0  0
   -9.9734   11.7922   -3.0063 C   0  0  0  0  0  0  0  0  0  0  0  0
   -9.2508    9.1845   -6.2525 C   0  0  0  0  0  0  0  0  0  0  0  0
   -9.6487    7.9958   -6.2019 O   0  0  0  0  0  0  0  0  0  0  0  0
   -8.6676    9.7579   -7.4854 C   0  0  0  0  0  0  0  0  0  0  0  0
   -7.2197   10.0883   -7.4097 C   0  0  2  0  0  0  0  0  0  0  0  0
   -6.9111   11.4805   -6.9055 C   0  0  0  0  0  0  0  0  0  0  0  0
   -5.4152   11.6183   -6.8832 C   0  0  0  0  0  0  0  0  0  0  0  0
   -4.9641   11.6943   -8.3106 N   0  0  0  0  0  0  0  0  0  0  0  0
   -3.5481   11.9298   -8.2477 C   0  0  0  0  0  0  0  0  0  0  0  0
   -3.0413   13.0725   -7.4728 C   0  0  2  0  0  0  0  0  0  0  0  0
   -3.5359   14.3801   -8.1086 C   0  0  0  0  0  0  0  0  0  0  0  0
   -2.7868   15.5489   -7.4867 C   0  0  0  0  0  0  0  0  0  0  0  0
   -2.2306   15.2326   -6.1314 C   0  0  0  0  0  0  0  0  0  0  0  0
   -1.2339   14.0933   -6.1218 C   0  0  0  0  0  0  0  0  0  0  0  0
   -1.5724   13.1116   -7.2747 C   0  0  0  0  0  0  0  0  0  0  0  0
   -5.1415   10.3148   -8.8001 C   0  0  0  0  0  0  0  0  0  0  0  0
   -6.5923    9.8792   -8.7598 C   0  0  0  0  0  0  0  0  0  0  0  0
   -9.9315    9.0604   -0.5241 C   0  0  0  0  0  0  0  0  0  0  0  0
  -10.9350    8.7852    0.3775 C   0  0  0  0  0  0  0  0  0  0  0  0
  -10.9221    7.6737    1.1821 C   0  0  0  0  0  0  0  0  0  0  0  0
   -9.8738    6.7407    1.1338 C   0  0  0  0  0  0  0  0  0  0  0  0
   -8.8642    6.9988    0.2414 C   0  0  0  0  0  0  0  0  0  0  0  0
   -8.9039    8.1455   -0.5701 C   0  0  0  0  0  0  0  0  0  0  0  0
   -7.5489    5.8606    0.0218 S   0  0  0  0  0  0  0  0  0  0  0  0
   -6.1846    6.3583   -0.9866 C   0  0  0  0  0  0  0  0  0  0  0  0
   -6.1114    5.6987   -2.3136 C   0  0  0  0  0  0  0  0  0  0  0  0
   -6.1698    6.6348   -3.4154 N   0  0  0  0  0  0  0  0  0  0  0  0
   -6.0040    6.0483   -4.7081 C   0  0  0  0  0  0  0  0  0  0  0  0
   -4.6056    5.4712   -4.8089 C   0  0  0  0  0  0  0  0  0  0  0  0
   -3.5889    6.4632   -4.2811 C   0  0  0  0  0  0  0  0  0  0  0  0
   -4.2205    7.8357   -4.1104 C   0  0  0  0  0  0  0  0  0  0  0  0
   -5.4081    7.8216   -3.1768 C   0  0  0  0  0  0  0  0  0  0  0  0
   -9.9523    5.5535    2.0207 C   0  0  1  0  0  0  0  0  0  0  0  0
  -10.9930    5.7170    2.9501 F   0  0  0  0  0  0  0  0  0  0  0  0
  -10.1996    4.4401    1.2981 F   0  0  0  0  0  0  0  0  0  0  0  0
   -8.7628    5.4513    2.7440 F   0  0  0  0  0  0  0  0  0  0  0  0
  1  2  1  0
  2  3  1  0
  3  4  1  0
  4  5  1  0
  5  6  2  0
  6  7  1  0
  7  8  1  0
  8  9  1  0
  9 10  1  0
 10 11  1  0
 11 12  1  0
  9 13  1  0
 13 14  2  0
 13 15  1  0
 16 15  1  6
 16 17  1  0
 17 18  1  0
 18 19  1  0
 19 20  1  0
 21 20  1  6
 21 22  1  0
 22 23  1  0
 23 24  1  0
 24 25  1  0
 25 26  1  0
 19 27  1  0
 27 28  1  0
  6 29  1  0
 29 30  2  0
 30 31  1  0
 31 32  2  0
 32 33  1  0
 33 34  2  0
 33 35  1  0
 35 36  1  0
 36 37  1  0
 37 38  1  0
 38 39  1  0
 39 40  1  0
 40 41  1  0
 41 42  1  0
 42 43  1  0
 32 44  1  0
 44 45  1  1
 44 46  1  0
 44 47  1  0
 12  4  1  0
 12  7  2  0
 28 16  1  0
 26 21  1  0
 34 29  1  0
 43 38  1  0
M  END
$$$$
