
     RDKit          3D

 42 45  0  0  0  0  0  0  0  0999 V2000
  -10.6392   11.8046   -0.1333 C   0  0  0  0  0  0  0  0  0  0  0  0
   -9.5081   12.3586   -0.8920 C   0  0  0  0  0  0  0  0  0  0  0  0
   -9.3515   13.8853   -0.7861 C   0  0  0  0  0  0  0  0  0  0  0  0
   -8.6589   11.7275   -1.6155 C   0  0  0  0  0  0  0  0  0  0  0  0
   -8.4111   10.3530   -1.7698 C   0  0  0  0  0  0  0  0  0  0  0  0
   -8.9887    9.5363   -0.9472 O   0  0  0  0  0  0  0  0  0  0  0  0
   -7.5946    9.7381   -2.7269 N   0  0  0  0  0  0  0  0  0  0  0  0
   -7.4080    8.2913   -2.6576 C   0  0  0  0  0  0  0  0  0  0  0  0
   -6.5286    7.8527   -3.7358 C   0  0  0  0  0  0  0  0  0  0  0  0
   -6.0818    8.8155   -4.6501 C   0  0  0  0  0  0  0  0  0  0  0  0
   -5.2585    8.5134   -5.7071 C   0  0  0  0  0  0  0  0  0  0  0  0
   -4.8787    7.2106   -5.8423 C   0  0  0  0  0  0  0  0  0  0  0  0
   -5.3077    6.2291   -4.9486 C   0  0  0  0  0  0  0  0  0  0  0  0
   -6.1242    6.5520   -3.9073 C   0  0  0  0  0  0  0  0  0  0  0  0
   -6.5542    5.5004   -2.9625 C   0  0  1  0  0  0  0  0  0  0  0  0
   -5.8648    5.4464   -1.7951 F   0  0  0  0  0  0  0  0  0  0  0  0
   -7.8825    5.7070   -2.6425 F   0  0  0  0  0  0  0  0  0  0  0  0
   -6.5302    4.2803   -3.6422 F   0  0  0  0  0  0  0  0  0  0  0  0
   -4.8359    9.5855   -6.5962 C   0  0  0  0  0  0  0  0  0  0  0  0
   -3.5673    9.7587   -7.0759 N   0  0  0  0  0  0  0  0  0  0  0  0
   -3.4891   10.8182   -7.8296 N   0  0  0  0  0  0  0  0  0  0  0  0
   -2.2684   11.3273   -8.5282 C   0  0  0  0  0  0  0  0  0  0  0  0
   -1.2359   11.7045   -7.5337 C   0  0  0  0  0  0  0  0  0  0  0  0
   -1.2758   13.1295   -7.1376 C   0  0  0  0  0  0  0  0  0  0  0  0
   -0.0625   13.8915   -7.2055 N   0  0  0  0  0  0  0  0  0  0  0  0
    1.0237   12.8809   -7.4584 C   0  0  0  0  0  0  0  0  0  0  0  0
   -0.0384   14.7984   -8.3426 C   0  0  0  0  0  0  0  0  0  0  0  0
   -4.6914   11.3919   -7.8846 C   0  0  0  0  0  0  0  0  0  0  0  0
   -5.1772   12.6076   -8.5856 C   0  0  0  0  0  0  0  0  0  0  0  0
   -6.6125   12.3790   -8.9968 C   0  0  0  0  0  0  0  0  0  0  0  0
   -7.4593   11.9682   -7.8989 N   0  0  0  0  0  0  0  0  0  0  0  0
   -6.9868   11.0083   -6.9455 C   0  0  0  0  0  0  0  0  0  0  0  0
   -5.5635   10.6425   -7.1196 C   0  0  0  0  0  0  0  0  0  0  0  0
   -8.7770   12.4970   -7.7326 C   0  0  0  0  0  0  0  0  0  0  0  0
   -9.0770   13.4836   -8.4506 O   0  0  0  0  0  0  0  0  0  0  0  0
   -9.6840   11.8706   -6.7546 C   0  0  0  0  0  0  0  0  0  0  0  0
  -10.5389   10.7811   -7.3451 C   0  0  1  0  0  0  0  0  0  0  0  0
  -10.1645    9.4660   -6.7676 C   0  0  0  0  0  0  0  0  0  0  0  0
  -11.2135    8.3911   -6.9212 C   0  0  0  0  0  0  0  0  0  0  0  0
  -12.5619    8.8403   -6.8236 N   0  0  0  0  0  0  0  0  0  0  0  0
  -12.8415   10.0429   -7.5846 C   0  0  0  0  0  0  0  0  0  0  0  0
  -11.9828   11.1401   -6.9921 C   0  0  0  0  0  0  0  0  0  0  0  0
  1  2  1  0
  2  3  1  0
  2  4  2  3
  4  5  1  0
  5  6  2  0
  5  7  1  0
  7  8  1  0
  8  9  1  0
  9 10  2  0
 10 11  1  0
 11 12  2  0
 12 13  1  0
 13 14  2  0
 14 15  1  0
 15 16  1  1
 15 17  1  0
 15 18  1  0
 11 19  1  0
 19 20  2  0
 20 21  1  0
 21 22  1  0
 22 23  1  0
 23 24  1  0
 24 25  1  0
 25 26  1  0
 25 27  1  0
 21 28  1  0
 28 29  1  0
 29 30  1  0
 30 31  1  0
 31 32  1  0
 32 33  1  0
 31 34  1  0
 34 35  2  0
 34 36  1  0
 37 36  1  1
 37 38  1  0
 38 39  1  0
 39 40  1  0
 40 41  1  0
 41 42  1  0
 14  9  1  0
 33 19  1  0
 33 28  2  0
 42 37  1  0
M  END
$$$$
