
     RDKit          3D

 45 49  0  0  0  0  0  0  0  0999 V2000
  -10.1601   11.6809   -1.8091 C   0  0  0  0  0  0  0  0  0  0  0  0
  -11.5048   12.3739   -1.6590 C   0  0  0  0  0  0  0  0  0  0  0  0
  -11.8550   12.0194   -0.2398 C   0  0  0  0  0  0  0  0  0  0  0  0
  -11.4103   10.5955   -0.1013 C   0  0  0  0  0  0  0  0  0  0  0  0
  -10.3493   10.4432   -1.0787 N   0  0  0  0  0  0  0  0  0  0  0  0
   -9.5780    9.2612   -1.3274 C   0  0  0  0  0  0  0  0  0  0  0  0
   -9.5807    8.3583   -0.4620 O   0  0  0  0  0  0  0  0  0  0  0  0
   -8.7800    9.0560   -2.5467 C   0  0  0  0  0  0  0  0  0  0  0  0
   -8.0202    7.4840   -2.7919 S   0  0  0  0  0  0  0  0  0  0  0  0
   -6.8313    7.3541   -4.0982 C   0  0  0  0  0  0  0  0  0  0  0  0
   -6.7169    8.3850   -5.0582 C   0  0  0  0  0  0  0  0  0  0  0  0
   -5.7734    8.3756   -6.0450 C   0  0  0  0  0  0  0  0  0  0  0  0
   -4.9177    7.2892   -6.0648 C   0  0  0  0  0  0  0  0  0  0  0  0
   -5.0082    6.2746   -5.1433 C   0  0  0  0  0  0  0  0  0  0  0  0
   -5.9728    6.2800   -4.1289 C   0  0  0  0  0  0  0  0  0  0  0  0
   -6.0009    5.1561   -3.1524 C   0  0  1  0  0  0  0  0  0  0  0  0
   -5.0072    4.2248   -3.4916 F   0  0  0  0  0  0  0  0  0  0  0  0
   -5.8406    5.5048   -1.8621 F   0  0  0  0  0  0  0  0  0  0  0  0
   -7.2118    4.4783   -3.3235 F   0  0  0  0  0  0  0  0  0  0  0  0
   -5.6058    9.4265   -7.0435 C   0  0  0  0  0  0  0  0  0  0  0  0
   -4.4557    9.9441   -7.5121 N   0  0  0  0  0  0  0  0  0  0  0  0
   -4.7106   10.9205   -8.4105 N   0  0  0  0  0  0  0  0  0  0  0  0
   -6.0223   11.0640   -8.5529 C   0  0  0  0  0  0  0  0  0  0  0  0
   -6.5982   10.1203   -7.6883 C   0  0  0  0  0  0  0  0  0  0  0  0
   -6.9217   11.9288   -9.3870 C   0  0  0  0  0  0  0  0  0  0  0  0
   -8.0903   11.1575   -9.8761 C   0  0  0  0  0  0  0  0  0  0  0  0
   -8.5497   10.0886   -9.0134 N   0  0  0  0  0  0  0  0  0  0  0  0
   -8.1055   10.0811   -7.6437 C   0  0  0  0  0  0  0  0  0  0  0  0
   -9.4157    9.0720   -9.4641 C   0  0  0  0  0  0  0  0  0  0  0  0
   -9.4901    8.0093   -8.8063 O   0  0  0  0  0  0  0  0  0  0  0  0
  -10.2227    9.2339  -10.6752 C   0  0  0  0  0  0  0  0  0  0  0  0
   -3.6483   11.6928   -9.0625 C   0  0  0  0  0  0  0  0  0  0  0  0
   -3.6282   13.1230   -8.6464 C   0  0  2  0  0  0  0  0  0  0  0  0
   -3.1291   13.8542   -9.7413 O   0  0  0  0  0  0  0  0  0  0  0  0
   -2.8834   13.4936   -7.4327 C   0  0  0  0  0  0  0  0  0  0  0  0
   -1.8022   14.4165   -7.5884 N   0  0  2  0  0  4  0  0  0  0  0  0
   -1.0313   14.5745   -6.3617 C   0  0  0  0  0  0  0  0  0  0  0  0
   -1.6409   15.5739   -5.4080 C   0  0  0  0  0  0  0  0  0  0  0  0
   -1.5569   16.9592   -5.9581 C   0  0  1  0  0  0  0  0  0  0  0  0
   -0.4073   17.7646   -5.3966 C   0  0  2  0  0  0  0  0  0  0  0  0
   -0.5172   17.8690   -3.9018 C   0  0  0  0  0  0  0  0  0  0  0  0
   -0.4096   19.1617   -5.9682 C   0  0  0  0  0  0  0  0  0  0  0  0
    0.8064   17.1833   -5.7714 O   0  0  0  0  0  0  0  0  0  0  0  0
   -1.4640   16.8540   -7.4752 C   0  0  0  0  0  0  0  0  0  0  0  0
   -2.4019   15.7238   -7.8731 C   0  0  0  0  0  0  0  0  0  0  0  0
  1  2  1  0
  2  3  1  0
  3  4  1  0
  4  5  1  0
  5  6  1  0
  6  7  2  0
  6  8  1  0
  8  9  1  0
  9 10  1  0
 10 11  2  0
 11 12  1  0
 12 13  2  0
 13 14  1  0
 14 15  2  0
 15 16  1  0
 16 17  1  6
 16 18  1  0
 16 19  1  0
 12 20  1  0
 20 21  2  0
 21 22  1  0
 22 23  1  0
 23 24  2  0
 23 25  1  0
 25 26  1  0
 26 27  1  0
 27 28  1  0
 27 29  1  0
 29 30  2  0
 29 31  1  0
 22 32  1  0
 32 33  1  0
 33 34  1  6
 33 35  1  0
 36 35  1  1
 36 37  1  0
 37 38  1  0
 39 38  1  1
 39 40  1  0
 40 41  1  1
 40 42  1  0
 40 43  1  0
 39 44  1  0
 44 45  1  0
  5  1  1  0
 15 10  1  0
 24 20  1  0
 28 24  1  0
 45 36  1  0
M  CHG  1  36   1
M  END
$$$$
