
     RDKit          3D

 49 54  0  0  0  0  0  0  0  0999 V2000
   -7.7596   13.6805   -0.0447 C   0  0  0  0  0  0  0  0  0  0  0  0
   -8.2659   14.4708   -1.1879 C   0  0  1  0  0  0  0  0  0  0  0  0
   -7.1216   15.3851   -1.6492 C   0  0  0  0  0  0  0  0  0  0  0  0
   -7.5451   16.1694   -2.7180 O   0  0  0  0  0  0  0  0  0  0  0  0
   -7.7084   15.3381   -3.8063 C   0  0  0  0  0  0  0  0  0  0  0  0
   -8.7895   14.3458   -3.5516 C   0  0  0  0  0  0  0  0  0  0  0  0
   -8.8388   13.7827   -2.2605 N   0  0  0  0  0  0  0  0  0  0  0  0
   -9.0606   12.4004   -2.1645 C   0  0  0  0  0  0  0  0  0  0  0  0
  -10.5001   11.9990   -1.8598 C   0  0  0  0  0  0  0  0  0  0  0  0
  -10.8297   10.8089   -2.7296 C   0  0  0  0  0  0  0  0  0  0  0  0
  -10.0347    9.6361   -2.3559 N   0  0  0  0  0  0  0  0  0  0  0  0
   -8.9493    9.1995   -3.0037 N   0  0  0  0  0  0  0  0  0  0  0  0
   -8.4497    8.0963   -2.4100 C   0  0  0  0  0  0  0  0  0  0  0  0
   -9.2285    7.8028   -1.3435 C   0  0  0  0  0  0  0  0  0  0  0  0
   -9.1911    6.7736   -0.3156 C   0  0  0  0  0  0  0  0  0  0  0  0
  -10.4629    6.5569    0.3070 N   0  0  0  0  0  0  0  0  0  0  0  0
  -11.6490    7.2407   -0.1991 C   0  0  0  0  0  0  0  0  0  0  0  0
  -11.2693    8.7319   -0.2837 C   0  0  0  0  0  0  0  0  0  0  0  0
  -10.2166    8.8009   -1.3485 C   0  0  0  0  0  0  0  0  0  0  0  0
  -10.6197    5.6581    1.4199 C   0  0  0  0  0  0  0  0  0  0  0  0
   -9.7113    4.8128    1.6142 O   0  0  0  0  0  0  0  0  0  0  0  0
  -11.7852    5.7465    2.2649 C   0  0  0  0  0  0  0  0  0  0  0  0
  -13.0717    5.2978    1.8009 N   0  0  0  0  0  0  0  0  0  0  0  0
  -11.7353    6.2084    3.4209 O   0  0  0  0  0  0  0  0  0  0  0  0
   -7.2481    7.4069   -2.9273 C   0  0  0  0  0  0  0  0  0  0  0  0
   -7.0104    6.0885   -2.7508 C   0  0  0  0  0  0  0  0  0  0  0  0
   -5.8364    5.5287   -3.2652 C   0  0  0  0  0  0  0  0  0  0  0  0
   -4.9227    6.3112   -3.9495 C   0  0  0  0  0  0  0  0  0  0  0  0
   -3.4306    5.6308   -4.6086 Cl  0  0  0  0  0  0  0  0  0  0  0  0
   -5.1595    7.6534   -4.1319 C   0  0  0  0  0  0  0  0  0  0  0  0
   -4.2050    8.5096   -4.8338 C   0  0  0  0  0  0  0  0  0  0  0  0
   -3.4233    9.1921   -5.4140 C   0  0  0  0  0  0  0  0  0  0  0  0
   -2.4822   10.0193   -6.1430 C   0  0  0  0  0  0  0  0  0  0  0  0
   -1.2535    9.6045   -6.5829 C   0  0  0  0  0  0  0  0  0  0  0  0
   -0.3879   10.4296   -7.2695 C   0  0  0  0  0  0  0  0  0  0  0  0
   -0.7396   11.7252   -7.5396 C   0  0  0  0  0  0  0  0  0  0  0  0
    0.3485   12.8043   -8.4277 Cl  0  0  0  0  0  0  0  0  0  0  0  0
   -1.9666   12.1710   -7.1101 C   0  0  0  0  0  0  0  0  0  0  0  0
   -2.8310   11.3236   -6.4173 C   0  0  0  0  0  0  0  0  0  0  0  0
   -2.4139   13.5835   -7.3335 C   0  0  0  0  0  0  0  0  0  0  0  0
   -3.7034   13.8002   -6.6868 N   0  0  0  0  0  0  0  0  0  0  0  0
   -4.1745   15.1521   -6.7744 C   0  0  0  0  0  0  0  0  0  0  0  0
   -3.7449   15.9471   -5.6000 C   0  0  0  0  0  0  0  0  0  0  0  0
   -2.7827   15.4622   -4.7555 C   0  0  0  0  0  0  0  0  0  0  0  0
   -2.3378   16.1365   -3.6404 C   0  0  0  0  0  0  0  0  0  0  0  0
   -2.9081   17.3831   -3.3676 C   0  0  0  0  0  0  0  0  0  0  0  0
   -3.8779   17.8921   -4.2030 C   0  0  0  0  0  0  0  0  0  0  0  0
   -4.2961   17.1863   -5.3089 C   0  0  0  0  0  0  0  0  0  0  0  0
   -6.3206    8.1687   -3.6148 C   0  0  0  0  0  0  0  0  0  0  0  0
  2  1  1  1
  2  3  1  0
  3  4  1  0
  4  5  1  0
  5  6  1  0
  6  7  1  0
  7  8  1  0
  8  9  1  0
  9 10  1  0
 10 11  1  0
 11 12  1  0
 12 13  2  0
 13 14  1  0
 14 15  1  0
 15 16  1  0
 16 17  1  0
 17 18  1  0
 18 19  1  0
 16 20  1  0
 20 21  2  0
 20 22  1  0
 22 23  1  0
 22 24  2  0
 13 25  1  0
 25 26  2  0
 26 27  1  0
 27 28  2  0
 28 29  1  0
 28 30  1  0
 30 31  1  0
 31 32  3  0
 32 33  1  0
 33 34  2  0
 34 35  1  0
 35 36  2  0
 36 37  1  0
 36 38  1  0
 38 39  2  0
 38 40  1  0
 40 41  1  0
 41 42  1  0
 42 43  1  0
 43 44  2  0
 44 45  1  0
 45 46  2  0
 46 47  1  0
 47 48  2  0
 30 49  2  0
  7  2  1  0
 19 11  1  0
 19 14  2  0
 49 25  1  0
 39 33  1  0
 48 43  1  0
M  END
$$$$
