
     RDKit          3D

 49 54  0  0  0  0  0  0  0  0999 V2000
   -1.9587    9.9873   -7.6581 O   0  0  0  0  0  0  0  0  0  0  0  0
   -2.5021   11.0769   -7.8866 C   0  0  0  0  0  0  0  0  0  0  0  0
   -1.7518   12.1967   -8.4652 C   0  0  0  0  0  0  0  0  0  0  0  0
   -1.1898   13.1727   -7.4836 C   0  0  1  0  0  0  0  0  0  0  0  0
   -1.8346   13.1248   -6.1277 C   0  0  0  0  0  0  0  0  0  0  0  0
   -1.4083   14.3685   -5.3606 C   0  0  0  0  0  0  0  0  0  0  0  0
   -0.0638   14.7240   -5.5790 N   0  0  0  0  0  0  0  0  0  0  0  0
    0.2558   16.0465   -5.9350 C   0  0  0  0  0  0  0  0  0  0  0  0
   -0.2521   17.1117   -5.0073 C   0  0  2  0  0  0  0  0  0  0  0  0
   -0.0083   18.5063   -5.5638 C   0  0  0  0  0  0  0  0  0  0  0  0
   -0.9192   19.4357   -4.7971 C   0  0  0  0  0  0  0  0  0  0  0  0
   -0.6421   19.3909   -3.3108 C   0  0  0  0  0  0  0  0  0  0  0  0
   -0.5743   18.0023   -2.7687 C   0  0  0  0  0  0  0  0  0  0  0  0
    0.2861   17.0627   -3.6128 C   0  0  0  0  0  0  0  0  0  0  0  0
    0.7897   13.6877   -6.0567 C   0  0  0  0  0  0  0  0  0  0  0  0
    0.2980   13.0153   -7.3113 C   0  0  0  0  0  0  0  0  0  0  0  0
   -3.8737   11.2401   -7.5815 N   0  0  0  0  0  0  0  0  0  0  0  0
   -4.6727   12.2962   -8.2123 C   0  0  0  0  0  0  0  0  0  0  0  0
   -5.7313   11.6773   -9.1085 C   0  0  0  0  0  0  0  0  0  0  0  0
   -6.4037   10.5792   -8.3520 C   0  0  0  0  0  0  0  0  0  0  0  0
   -5.8588    9.9971   -7.2164 C   0  0  0  0  0  0  0  0  0  0  0  0
   -4.5666   10.3894   -6.6333 C   0  0  0  0  0  0  0  0  0  0  0  0
   -6.7355    9.0180   -6.7579 C   0  0  0  0  0  0  0  0  0  0  0  0
   -7.7691    9.0389   -7.6197 N   0  0  0  0  0  0  0  0  0  0  0  0
   -7.5729    9.9547   -8.5536 N   0  0  0  0  0  0  0  0  0  0  0  0
   -8.4695   10.2722   -9.6609 C   0  0  0  0  0  0  0  0  0  0  0  0
   -9.6925   10.9852   -9.1282 C   0  0  0  0  0  0  0  0  0  0  0  0
   -9.4662   12.4771   -9.0068 C   0  0  0  0  0  0  0  0  0  0  0  0
  -10.6905   13.0389   -8.6074 O   0  0  0  0  0  0  0  0  0  0  0  0
   -6.6276    8.1364   -5.6027 C   0  0  0  0  0  0  0  0  0  0  0  0
   -5.7178    7.0784   -5.5874 C   0  0  0  0  0  0  0  0  0  0  0  0
   -5.6164    6.2462   -4.5061 C   0  0  0  0  0  0  0  0  0  0  0  0
   -6.4146    6.4069   -3.3583 C   0  0  0  0  0  0  0  0  0  0  0  0
   -7.3016    7.4310   -3.3598 C   0  0  0  0  0  0  0  0  0  0  0  0
   -7.3945    8.2824   -4.4867 C   0  0  0  0  0  0  0  0  0  0  0  0
   -8.4423    7.7472   -2.0540 S   0  0  0  0  0  0  0  0  0  0  0  0
   -9.5980    9.0525   -2.4522 C   0  0  0  0  0  0  0  0  0  0  0  0
  -10.1001    9.8291   -1.2985 C   0  0  0  0  0  0  0  0  0  0  0  0
  -11.3258    9.4526   -0.7557 N   0  0  0  0  0  0  0  0  0  0  0  0
  -12.3130    8.7234   -1.3664 C   0  0  0  0  0  0  0  0  0  0  0  0
  -13.7391    9.1138   -1.0051 C   0  0  0  0  0  0  0  0  0  0  0  0
  -13.9021    9.5437    0.4151 C   0  0  1  0  0  0  0  0  0  0  0  0
  -15.0298    8.9672    1.0178 F   0  0  0  0  0  0  0  0  0  0  0  0
  -12.7200    9.0271    1.2112 C   0  0  0  0  0  0  0  0  0  0  0  0
  -11.4886    9.7159    0.6567 C   0  0  0  0  0  0  0  0  0  0  0  0
   -6.2151    5.4306   -2.2442 C   0  0  2  0  0  0  0  0  0  0  0  0
   -7.2892    4.5356   -2.2225 F   0  0  0  0  0  0  0  0  0  0  0  0
   -6.1407    6.0323   -1.0192 F   0  0  0  0  0  0  0  0  0  0  0  0
   -5.0935    4.7025   -2.4897 F   0  0  0  0  0  0  0  0  0  0  0  0
  1  2  2  0
  2  3  1  0
  4  3  1  6
  4  5  1  0
  5  6  1  0
  6  7  1  0
  7  8  1  0
  9  8  1  6
  9 10  1  0
 10 11  1  0
 11 12  1  0
 12 13  1  0
 13 14  1  0
  7 15  1  0
 15 16  1  0
  2 17  1  0
 17 18  1  0
 18 19  1  0
 19 20  1  0
 20 21  2  0
 21 22  1  0
 21 23  1  0
 23 24  2  0
 24 25  1  0
 25 26  1  0
 26 27  1  0
 27 28  1  0
 28 29  1  0
 23 30  1  0
 30 31  2  0
 31 32  1  0
 32 33  2  0
 33 34  1  0
 34 35  2  0
 34 36  1  0
 36 37  1  0
 37 38  1  0
 38 39  1  0
 39 40  1  0
 40 41  1  0
 41 42  1  0
 42 43  1  1
 42 44  1  0
 44 45  1  0
 33 46  1  0
 46 47  1  1
 46 48  1  0
 46 49  1  0
 16  4  1  0
 14  9  1  0
 22 17  1  0
 25 20  1  0
 35 30  1  0
 45 39  1  0
M  END
$$$$
