
     RDKit          3D

 50 56  0  0  0  0  0  0  0  0999 V2000
    0.6133   11.3899   -9.2651 C   0  0  0  0  0  0  0  0  0  0  0  0
   -0.8930   11.2121   -8.4451 S   0  0  1  0  0  6  0  0  0  0  0  0
   -0.8041   10.0855   -7.4017 O   0  0  0  0  0  0  0  0  0  0  0  0
   -1.0496   12.5034   -7.5825 O   0  0  0  0  0  0  0  0  0  0  0  0
   -2.3118   10.9852   -9.2920 N   0  0  0  0  0  0  0  0  0  0  0  0
   -2.9344   12.0480   -9.9778 C   0  0  0  0  0  0  0  0  0  0  0  0
   -3.6795   13.0552   -9.1460 C   0  0  0  0  0  0  0  0  0  0  0  0
   -3.7466   12.5691   -7.7225 C   0  0  0  0  0  0  0  0  0  0  0  0
   -3.7569   11.1750   -7.5292 C   0  0  0  0  0  0  0  0  0  0  0  0
   -3.3642   10.2103   -8.5693 C   0  0  0  0  0  0  0  0  0  0  0  0
   -4.0253   10.9085   -6.1815 C   0  0  0  0  0  0  0  0  0  0  0  0
   -4.1343   12.0946   -5.6343 N   0  0  0  0  0  0  0  0  0  0  0  0
   -3.9714   13.0948   -6.5430 N   0  0  0  0  0  0  0  0  0  0  0  0
   -4.1337   14.4886   -6.1190 C   0  0  0  0  0  0  0  0  0  0  0  0
   -3.0590   15.3859   -6.5631 C   0  0  0  0  0  0  0  0  0  0  0  0
   -2.0341   15.8923   -5.6255 C   0  0  0  0  0  0  0  0  0  0  0  0
   -2.3697   17.1223   -4.9961 N   0  0  0  0  0  0  0  0  0  0  0  0
   -1.4350   17.3837   -3.8865 C   0  0  0  0  0  0  0  0  0  0  0  0
   -1.7693   18.7166   -3.2503 C   0  0  0  0  0  0  0  0  0  0  0  0
   -3.0533   18.6251   -2.5821 N   0  0  0  0  0  0  0  0  0  0  0  0
   -3.9244   17.6867   -3.1686 C   0  0  0  0  0  0  0  0  0  0  0  0
   -3.6606   17.5207   -4.6785 C   0  0  0  0  0  0  0  0  0  0  0  0
   -3.5730   19.9807   -2.5153 C   0  0  2  0  0  0  0  0  0  0  0  0
   -2.5586   21.0579   -2.4102 C   0  0  0  0  0  0  0  0  0  0  0  0
   -3.2872   20.7017   -1.1744 C   0  0  0  0  0  0  0  0  0  0  0  0
   -4.5101    9.6299   -5.6712 C   0  0  0  0  0  0  0  0  0  0  0  0
   -3.8552    8.5126   -6.3028 C   0  0  0  0  0  0  0  0  0  0  0  0
   -4.1061    7.2191   -5.9708 C   0  0  0  0  0  0  0  0  0  0  0  0
   -5.0233    7.0226   -4.9871 C   0  0  0  0  0  0  0  0  0  0  0  0
   -5.4303    5.4257   -4.4484 Cl  0  0  0  0  0  0  0  0  0  0  0  0
   -5.7049    8.1230   -4.3267 C   0  0  0  0  0  0  0  0  0  0  0  0
   -6.6498    7.7287   -3.3594 C   0  0  0  0  0  0  0  0  0  0  0  0
   -7.5232    7.3761   -2.4777 C   0  0  0  0  0  0  0  0  0  0  0  0
   -8.4472    6.9851   -1.5381 C   0  0  0  0  0  0  0  0  0  0  0  0
   -8.1911    6.1618   -0.4290 C   0  0  0  0  0  0  0  0  0  0  0  0
   -9.0747    6.0449    0.6017 C   0  0  0  0  0  0  0  0  0  0  0  0
  -10.2988    6.7201    0.6519 C   0  0  0  0  0  0  0  0  0  0  0  0
  -10.5947    7.5394   -0.4457 C   0  0  0  0  0  0  0  0  0  0  0  0
   -9.7150    7.6435   -1.4511 C   0  0  0  0  0  0  0  0  0  0  0  0
  -11.0625    6.8114    1.9002 C   0  0  0  0  0  0  0  0  0  0  0  0
  -11.2251    5.3769    2.3660 N   0  0  0  0  0  0  0  0  0  0  0  0
  -12.4262    4.8525    1.7143 C   0  0  0  0  0  0  0  0  0  0  0  0
  -13.4605    4.8849    2.8607 C   0  0  0  0  0  0  0  0  0  0  0  0
  -14.4465    5.6387    2.8690 C   0  0  0  0  0  0  0  0  0  0  0  0
  -15.5029    5.6636    3.9185 C   0  0  0  0  0  0  0  0  0  0  0  0
  -15.1187    4.6695    4.8619 C   0  0  0  0  0  0  0  0  0  0  0  0
  -16.2952    4.4506    6.2397 Cl  0  0  0  0  0  0  0  0  0  0  0  0
  -14.1229    3.9204    4.8487 C   0  0  0  0  0  0  0  0  0  0  0  0
  -13.0634    3.8691    3.8219 C   0  0  0  0  0  0  0  0  0  0  0  0
   -5.3932    9.3717   -4.7215 C   0  0  0  0  0  0  0  0  0  0  0  0
  2  1  1  6
  2  3  2  0
  2  4  2  0
  2  5  1  0
  5  6  1  0
  6  7  1  0
  7  8  1  0
  8  9  2  0
  9 10  1  0
  9 11  1  0
 11 12  2  0
 12 13  1  0
 13 14  1  0
 14 15  1  0
 15 16  1  0
 16 17  1  0
 17 18  1  0
 18 19  1  0
 19 20  1  0
 20 21  1  0
 21 22  1  0
 23 20  1  1
 23 24  1  0
 24 25  1  0
 11 26  1  0
 26 27  2  0
 27 28  1  0
 28 29  2  0
 29 30  1  0
 29 31  1  0
 31 32  1  0
 32 33  3  0
 33 34  1  0
 34 35  2  0
 35 36  1  0
 36 37  2  0
 37 38  1  0
 38 39  2  0
 37 40  1  0
 40 41  1  0
 41 42  1  0
 42 43  1  0
 43 44  2  0
 44 45  1  0
 45 46  2  0
 46 47  1  0
 46 48  1  0
 48 49  2  0
 31 50  2  0
 10  5  1  0
 13  8  1  0
 22 17  1  0
 25 23  1  0
 50 26  1  0
 39 34  1  0
 49 43  1  0
M  END
$$$$
