
     RDKit          3D

 47 52  0  0  0  0  0  0  0  0999 V2000
   -8.3489   12.2100    0.0198 C   0  0  0  0  0  0  0  0  0  0  0  0
   -7.5692   13.3207   -0.0725 C   0  0  0  0  0  0  0  0  0  0  0  0
   -8.4059   14.5745   -0.0440 C   0  0  0  0  0  0  0  0  0  0  0  0
   -9.6729   14.4334    0.0584 C   0  0  0  0  0  0  0  0  0  0  0  0
  -10.4402   13.3155    0.1501 C   0  0  0  0  0  0  0  0  0  0  0  0
   -9.7018   12.0718    0.1283 C   0  0  0  0  0  0  0  0  0  0  0  0
  -10.4369   10.8064    0.1601 C   0  0  0  0  0  0  0  0  0  0  0  0
  -10.9436   10.3504   -1.0848 N   0  0  0  0  0  4  0  0  0  0  0  0
  -11.5306    8.9961   -1.0413 C   0  0  0  0  0  0  0  0  0  0  0  0
  -10.3611    8.0634   -1.0400 C   0  0  0  0  0  0  0  0  0  0  0  0
  -10.1013    7.2731    0.0385 C   0  0  0  0  0  0  0  0  0  0  0  0
  -11.3353    7.2722    1.3716 Cl  0  0  0  0  0  0  0  0  0  0  0  0
   -9.4169    8.0794   -2.0646 C   0  0  0  0  0  0  0  0  0  0  0  0
   -8.2170    7.3147   -2.0137 C   0  0  0  0  0  0  0  0  0  0  0  0
   -8.0670    6.5466   -0.8679 C   0  0  0  0  0  0  0  0  0  0  0  0
   -9.0193    6.5274    0.1686 C   0  0  0  0  0  0  0  0  0  0  0  0
   -7.2352    7.4757   -2.9870 C   0  0  0  0  0  0  0  0  0  0  0  0
   -6.3201    7.6421   -3.8768 C   0  0  0  0  0  0  0  0  0  0  0  0
   -5.3143    7.8175   -4.8339 C   0  0  0  0  0  0  0  0  0  0  0  0
   -5.2234    9.0453   -5.5437 C   0  0  0  0  0  0  0  0  0  0  0  0
   -4.3162    9.3313   -6.4945 C   0  0  0  0  0  0  0  0  0  0  0  0
   -3.4049    8.3094   -6.7851 C   0  0  0  0  0  0  0  0  0  0  0  0
   -3.3877    7.0898   -6.1722 C   0  0  0  0  0  0  0  0  0  0  0  0
   -4.3645    6.8691   -5.1886 C   0  0  0  0  0  0  0  0  0  0  0  0
   -4.4316    5.3575   -4.3074 Cl  0  0  0  0  0  0  0  0  0  0  0  0
   -4.2062   10.5917   -7.1923 C   0  0  0  0  0  0  0  0  0  0  0  0
   -5.1141   11.5346   -7.4980 N   0  0  0  0  0  0  0  0  0  0  0  0
   -4.5842   12.5552   -8.1025 N   0  0  0  0  0  0  0  0  0  0  0  0
   -3.2388   12.3584   -8.2410 C   0  0  0  0  0  0  0  0  0  0  0  0
   -2.9833   11.1423   -7.6798 C   0  0  0  0  0  0  0  0  0  0  0  0
   -2.1519   13.1631   -8.8307 C   0  0  0  0  0  0  0  0  0  0  0  0
   -1.1984   12.1382   -9.4416 C   0  0  0  0  0  0  0  0  0  0  0  0
   -0.6399   11.2895   -8.4157 N   0  0  0  0  0  0  0  0  0  0  0  0
   -1.6249   10.6001   -7.6288 C   0  0  0  0  0  0  0  0  0  0  0  0
    0.4770   10.1595   -9.1150 S   0  0  1  0  0  6  0  0  0  0  0  0
   -0.2999    9.4267  -10.1952 O   0  0  0  0  0  0  0  0  0  0  0  0
    1.5899   10.9707   -9.7429 O   0  0  0  0  0  0  0  0  0  0  0  0
    1.1817    9.0653   -7.9289 C   0  0  0  0  0  0  0  0  0  0  0  0
   -5.2329   13.7707   -8.6139 C   0  0  0  0  0  0  0  0  0  0  0  0
   -6.2484   14.2794   -7.6163 C   0  0  0  0  0  0  0  0  0  0  0  0
   -5.5473   14.6283   -6.3324 C   0  0  0  0  0  0  0  0  0  0  0  0
   -5.4597   16.0655   -6.0951 N   0  0  1  0  0  4  0  0  0  0  0  0
   -6.6840   16.7449   -6.3637 C   0  0  0  0  0  0  0  0  0  0  0  0
   -7.6663   16.8287   -5.2438 C   0  0  0  0  0  0  0  0  0  0  0  0
   -7.1434   16.1189   -4.1368 O   0  0  0  0  0  0  0  0  0  0  0  0
   -5.9773   16.8070   -3.7979 C   0  0  0  0  0  0  0  0  0  0  0  0
   -4.9212   16.3656   -4.8016 C   0  0  0  0  0  0  0  0  0  0  0  0
  1  2  2  0
  2  3  1  0
  3  4  2  0
  4  5  1  0
  5  6  2  0
  6  7  1  0
  7  8  1  0
  8  9  1  0
  9 10  1  0
 10 11  2  0
 11 12  1  0
 10 13  1  0
 13 14  2  0
 14 15  1  0
 15 16  2  0
 14 17  1  0
 17 18  3  0
 18 19  1  0
 19 20  2  0
 20 21  1  0
 21 22  2  0
 22 23  1  0
 23 24  2  0
 24 25  1  0
 21 26  1  0
 26 27  2  0
 27 28  1  0
 28 29  1  0
 29 30  2  0
 29 31  1  0
 31 32  1  0
 32 33  1  0
 33 34  1  0
 33 35  1  0
 35 36  2  0
 35 37  2  0
 35 38  1  1
 28 39  1  0
 39 40  1  0
 40 41  1  0
 42 41  1  1
 42 43  1  0
 43 44  1  0
 44 45  1  0
 45 46  1  0
 46 47  1  0
  6  1  1  0
 16 11  1  0
 24 19  1  0
 30 26  1  0
 34 30  1  0
 47 42  1  0
M  CHG  2   8   1  42   1
M  END
$$$$
