
     RDKit          3D

 48 53  0  0  0  0  0  0  0  0999 V2000
  -10.7434    5.2263    0.6067 C   0  0  0  0  0  0  0  0  0  0  0  0
  -10.4636    6.5418    0.2877 O   0  0  0  0  0  0  0  0  0  0  0  0
   -9.4537    6.8878   -0.6151 C   0  0  0  0  0  0  0  0  0  0  0  0
   -8.1954    6.3311   -0.5041 C   0  0  0  0  0  0  0  0  0  0  0  0
   -7.2170    6.6775   -1.4076 C   0  0  0  0  0  0  0  0  0  0  0  0
   -7.4420    7.5625   -2.4260 C   0  0  0  0  0  0  0  0  0  0  0  0
   -6.4383    7.9757   -3.4136 C   0  0  0  0  0  0  0  0  0  0  0  0
   -5.5905    8.3255   -4.2243 C   0  0  0  0  0  0  0  0  0  0  0  0
   -4.5948    8.7270   -5.1423 C   0  0  0  0  0  0  0  0  0  0  0  0
   -4.7857    9.5364   -6.2070 C   0  0  0  0  0  0  0  0  0  0  0  0
   -3.8350    9.7745   -7.1558 C   0  0  0  0  0  0  0  0  0  0  0  0
   -2.5958    9.1218   -6.9754 C   0  0  0  0  0  0  0  0  0  0  0  0
   -2.3225    8.2962   -5.9282 C   0  0  0  0  0  0  0  0  0  0  0  0
   -3.3146    8.0945   -5.0085 C   0  0  0  0  0  0  0  0  0  0  0  0
   -3.1014    7.0852   -3.5989 Cl  0  0  0  0  0  0  0  0  0  0  0  0
   -3.9275   10.7175   -8.2706 C   0  0  0  0  0  0  0  0  0  0  0  0
   -2.8240   10.9973   -9.0387 N   0  0  0  0  0  0  0  0  0  0  0  0
   -3.0674   11.9143   -9.9308 N   0  0  0  0  0  0  0  0  0  0  0  0
   -2.0151   12.4318  -10.8366 C   0  0  0  0  0  0  0  0  0  0  0  0
   -1.3946   11.2266  -11.4933 C   0  0  0  0  0  0  0  0  0  0  0  0
   -0.1841   10.6973  -10.8087 C   0  0  0  0  0  0  0  0  0  0  0  0
    1.0229   11.1239  -11.6140 N   0  0  0  0  0  0  0  0  0  0  0  0
    1.8806   11.7602  -10.6670 C   0  0  0  0  0  0  0  0  0  0  0  0
    2.7223   12.8679  -11.2517 C   0  0  0  0  0  0  0  0  0  0  0  0
    1.8372   13.8363  -11.8021 O   0  0  0  0  0  0  0  0  0  0  0  0
    1.3181   13.1903  -12.9376 C   0  0  0  0  0  0  0  0  0  0  0  0
    0.4561   12.0355  -12.6140 C   0  0  0  0  0  0  0  0  0  0  0  0
   -4.3268   12.2512   -9.7662 C   0  0  0  0  0  0  0  0  0  0  0  0
   -5.1742   13.2296  -10.4745 C   0  0  0  0  0  0  0  0  0  0  0  0
   -6.5238   12.6230  -10.6651 C   0  0  0  0  0  0  0  0  0  0  0  0
   -7.1458   12.0450   -9.5388 N   0  0  0  0  0  0  0  0  0  0  0  0
   -6.3351   11.6970   -8.3976 C   0  0  0  0  0  0  0  0  0  0  0  0
   -4.9187   11.5041   -8.7151 C   0  0  0  0  0  0  0  0  0  0  0  0
   -7.9481   10.5638  -10.0840 S   0  0  2  0  0  6  0  0  0  0  0  0
   -6.6668    9.6495  -10.9153 C   0  0  0  0  0  0  0  0  0  0  0  0
   -8.9890   10.9263  -11.1118 O   0  0  0  0  0  0  0  0  0  0  0  0
   -8.4377    9.8046   -8.9333 O   0  0  0  0  0  0  0  0  0  0  0  0
   -8.6941    8.0998   -2.5112 C   0  0  0  0  0  0  0  0  0  0  0  0
   -9.7344    7.7782   -1.6086 C   0  0  0  0  0  0  0  0  0  0  0  0
  -11.0041    8.4704   -1.8454 C   0  0  0  0  0  0  0  0  0  0  0  0
  -11.4681    9.4929   -1.0615 N   0  0  0  0  0  0  0  0  0  0  0  0
  -10.9447   10.2192   -0.0482 C   0  0  0  0  0  0  0  0  0  0  0  0
  -10.6506   11.6371   -0.0658 C   0  0  0  0  0  0  0  0  0  0  0  0
   -9.9331   12.2801   -1.0504 C   0  0  0  0  0  0  0  0  0  0  0  0
   -9.6427   13.6244   -0.9826 C   0  0  0  0  0  0  0  0  0  0  0  0
  -10.0707   14.3634    0.0916 C   0  0  0  0  0  0  0  0  0  0  0  0
  -10.7980   13.7459    1.1004 C   0  0  0  0  0  0  0  0  0  0  0  0
  -11.0703   12.4074    1.0015 C   0  0  0  0  0  0  0  0  0  0  0  0
  1  2  1  0
  2  3  1  0
  3  4  2  0
  4  5  1  0
  5  6  2  0
  6  7  1  0
  7  8  3  0
  8  9  1  0
  9 10  2  0
 10 11  1  0
 11 12  2  0
 12 13  1  0
 13 14  2  0
 14 15  1  0
 11 16  1  0
 16 17  2  0
 17 18  1  0
 18 19  1  0
 19 20  1  0
 20 21  1  0
 21 22  1  0
 22 23  1  0
 23 24  1  0
 24 25  1  0
 25 26  1  0
 26 27  1  0
 18 28  1  0
 28 29  1  0
 29 30  1  0
 30 31  1  0
 31 32  1  0
 32 33  1  0
 31 34  1  0
 34 35  1  6
 34 36  2  0
 34 37  2  0
  6 38  1  0
 38 39  2  0
 39 40  1  0
 40 41  1  0
 41 42  1  0
 42 43  1  0
 43 44  2  0
 44 45  1  0
 45 46  2  0
 46 47  1  0
 47 48  2  0
 39  3  1  0
 14  9  1  0
 33 16  1  0
 27 22  1  0
 33 28  2  0
 48 43  1  0
M  END
$$$$
